* PEX produced on Mon Feb  3 05:58:16 AM CET 2025 using /foss/tools/osic-multitool/iic-pex.sh with m=3 and s=1
* NGSPICE file created from VCO_FD.ext - technology: sky130A

.subckt VCO_FD VDDA GNDA V_CONT V_OUT120
X0 a_2046_966.t2 a_110_1544.t3 VDDA.t74 VDDA.t73 sky130_fd_pr__pfet_01v8 ad=1 pd=5 as=1 ps=5 w=2 l=1.5
X1 GNDA.t102 div120_0.div5_0.E.t2 div120_0.div5_0.I.t2 GNDA.t101 sky130_fd_pr__nfet_01v8 ad=0.1 pd=0.9 as=0.1 ps=0.9 w=0.5 l=0.15
X2 div120_0.div3_2_0.D.t0 div120_0.div3_2_0.C.t4 GNDA.t42 GNDA.t41 sky130_fd_pr__nfet_01v8 ad=0.2 pd=1.8 as=0.1 ps=0.9 w=0.5 l=0.15
X3 div120_0.div2_3_1.CLK.t2 V_OSC.t2 VDDA.t41 VDDA.t40 sky130_fd_pr__pfet_01v8 ad=0.2 pd=1.8 as=0.1 ps=0.9 w=0.5 l=0.15
X4 div120_0.div5_0.G.t0 V_OUT120.t2 div120_0.div5_0.F.t0 VDDA.t50 sky130_fd_pr__pfet_01v8 ad=0.2 pd=1.8 as=0.1 ps=0.9 w=0.5 l=0.15
X5 div120_0.div3_2_0.H.t2 div120_0.div3_2_0.CLK.t3 GNDA.t104 GNDA.t103 sky130_fd_pr__nfet_01v8 ad=0.1 pd=0.9 as=0.1 ps=0.9 w=0.5 l=0.15
X6 div120_0.div24.t2 div120_0.div3_2_0.I.t2 VDDA.t47 VDDA.t46 sky130_fd_pr__pfet_01v8 ad=0.1 pd=0.9 as=0.2 ps=1.8 w=0.5 l=0.15
X7 a_2046_228.t0 V_CONT.t0 GNDA.t40 GNDA.t39 sky130_fd_pr__nfet_01v8 ad=0.5 pd=3 as=0.5 ps=3 w=1 l=0.15
X8 div120_0.div3_2_0.C.t3 div120_0.div3_2_0.A.t2 VDDA.t78 VDDA.t77 sky130_fd_pr__pfet_01v8 ad=0.2 pd=1.8 as=0.1 ps=0.9 w=0.5 l=0.15
X9 GNDA.t65 V_OSC.t3 div120_0.div2_3_1.CLK.t0 GNDA.t64 sky130_fd_pr__nfet_01v8 ad=0.1 pd=0.9 as=0.2 ps=1.8 w=0.5 l=0.15
X10 div120_0.div2_3_2.CLK.t2 div120_0.div2.t2 VDDA.t43 VDDA.t42 sky130_fd_pr__pfet_01v8 ad=0.2 pd=1.8 as=0.1 ps=0.9 w=0.5 l=0.15
X11 a_2046_228.t2 VDDA.t91 GNDA.t100 GNDA.t39 sky130_fd_pr__nfet_01v8 ad=0.215 pd=1.86 as=0.215 ps=1.86 w=0.43 l=0.15
X12 a_1492_228.t0 V_CONT.t1 GNDA.t4 GNDA.t3 sky130_fd_pr__nfet_01v8 ad=0.5 pd=3 as=0.5 ps=3 w=1 l=0.15
X13 V_OUT120.t0 div120_0.div5_0.M.t4 GNDA.t10 GNDA.t9 sky130_fd_pr__nfet_01v8 ad=0.2 pd=1.8 as=0.1 ps=0.9 w=0.5 l=0.15
X14 div120_0.div5_0.H.t1 div120_0.div24.t3 div120_0.div5_0.G.t1 GNDA.t13 sky130_fd_pr__nfet_01v8 ad=0.1 pd=0.9 as=0.2 ps=1.8 w=0.5 l=0.15
X15 VDDA.t84 div120_0.div5_0.Q2_b.t2 div120_0.div5_0.G.t2 VDDA.t83 sky130_fd_pr__pfet_01v8 ad=0.1 pd=0.9 as=0.2 ps=1.8 w=0.5 l=0.15
X16 a_938_228.t1 V_CONT.t2 GNDA.t15 GNDA.t14 sky130_fd_pr__nfet_01v8 ad=0.5 pd=3 as=0.5 ps=3 w=1 l=0.15
X17 div120_0.div5_0.Q2_b.t0 div120_0.div5_0.J.t4 GNDA.t51 GNDA.t50 sky130_fd_pr__nfet_01v8 ad=0.2 pd=1.8 as=0.1 ps=0.9 w=0.5 l=0.15
X18 div120_0.div2_3_2.C.t3 div120_0.div2_3_2.CLK.t3 GNDA.t95 GNDA.t94 sky130_fd_pr__nfet_01v8 ad=0.1 pd=0.9 as=0.1 ps=0.9 w=0.5 l=0.15
X19 VDDA.t88 div120_0.div5_0.A.t3 div120_0.div5_0.B.t1 VDDA.t87 sky130_fd_pr__pfet_01v8 ad=0.1 pd=0.9 as=0.2 ps=1.8 w=0.5 l=0.15
X20 div120_0.div3_2_0.C.t2 div120_0.div3_2_0.CLK.t4 GNDA.t93 GNDA.t92 sky130_fd_pr__nfet_01v8 ad=0.1 pd=0.9 as=0.1 ps=0.9 w=0.5 l=0.15
X21 a_1492_228.t2 VDDA.t92 GNDA.t99 GNDA.t3 sky130_fd_pr__nfet_01v8 ad=0.215 pd=1.86 as=0.215 ps=1.86 w=0.43 l=0.15
X22 div120_0.div2_3_2.B.t1 div120_0.div4.t2 GNDA.t59 GNDA.t58 sky130_fd_pr__nfet_01v8 ad=0.1 pd=0.9 as=0.1 ps=0.9 w=0.5 l=0.15
X23 div120_0.div5_0.E.t0 div120_0.div24.t4 VDDA.t20 VDDA.t19 sky130_fd_pr__pfet_01v8 ad=0.2 pd=1.8 as=0.2 ps=1.8 w=0.5 l=0.15
X24 a_938_228.t2 VDDA.t93 GNDA.t98 GNDA.t14 sky130_fd_pr__nfet_01v8 ad=0.215 pd=1.86 as=0.215 ps=1.86 w=0.43 l=0.15
X25 GNDA.t81 div120_0.div2_3_0.CLK.t3 div120_0.div2_3_0.C.t3 GNDA.t80 sky130_fd_pr__nfet_01v8 ad=0.1 pd=0.9 as=0.1 ps=0.9 w=0.5 l=0.15
X26 div120_0.div5_0.L.t0 V_OUT120.t3 GNDA.t79 GNDA.t78 sky130_fd_pr__nfet_01v8 ad=0.1 pd=0.9 as=0.2 ps=1.8 w=0.5 l=0.15
X27 GNDA.t72 div120_0.div2_3_1.CLK.t3 div120_0.div2_3_1.C.t3 GNDA.t71 sky130_fd_pr__nfet_01v8 ad=0.1 pd=0.9 as=0.1 ps=0.9 w=0.5 l=0.15
X28 VDDA.t72 a_110_1544.t1 a_110_1544.t2 VDDA.t71 sky130_fd_pr__pfet_01v8 ad=1 pd=5 as=1 ps=5 w=2 l=1.5
X29 div120_0.div5_0.M.t1 div120_0.div5_0.Q2_b.t3 GNDA.t34 GNDA.t33 sky130_fd_pr__nfet_01v8 ad=0.1 pd=0.9 as=0.1 ps=0.9 w=0.5 l=0.15
X30 div120_0.div5_0.J.t3 div120_0.div24.t5 GNDA.t109 GNDA.t108 sky130_fd_pr__nfet_01v8 ad=0.1 pd=0.9 as=0.1 ps=0.9 w=0.5 l=0.15
X31 GNDA.t75 div120_0.div3_2_0.I.t3 div120_0.div3_2_0.G.t0 GNDA.t74 sky130_fd_pr__nfet_01v8 ad=0.2 pd=1.8 as=0.1 ps=0.9 w=0.5 l=0.15
X32 a_2046_966.t0 GNDA.t115 VDDA.t30 VDDA.t29 sky130_fd_pr__pfet_01v8 ad=0.43 pd=2.72 as=0.43 ps=2.72 w=0.86 l=0.15
X33 div120_0.div4.t0 div120_0.div2_3_2.C.t4 GNDA.t111 GNDA.t110 sky130_fd_pr__nfet_01v8 ad=0.2 pd=1.8 as=0.1 ps=0.9 w=0.5 l=0.15
X34 div120_0.div5_0.E.t1 div120_0.div5_0.D.t4 GNDA.t48 GNDA.t47 sky130_fd_pr__nfet_01v8 ad=0.2 pd=1.8 as=0.1 ps=0.9 w=0.5 l=0.15
X35 div120_0.div24.t0 div120_0.div3_2_0.I.t4 GNDA.t46 GNDA.t45 sky130_fd_pr__nfet_01v8 ad=0.2 pd=1.8 as=0.2 ps=1.8 w=0.5 l=0.15
X36 GNDA.t25 div120_0.div2_3_0.CLK.t4 div120_0.div2_3_0.C.t2 GNDA.t24 sky130_fd_pr__nfet_01v8 ad=0.1 pd=0.9 as=0.2 ps=1.8 w=0.5 l=0.15
X37 div120_0.div5_0.A.t2 div120_0.div5_0.Q2_b.t4 VDDA.t82 VDDA.t81 sky130_fd_pr__pfet_01v8 ad=0.2 pd=1.8 as=0.1 ps=0.9 w=0.5 l=0.15
X38 GNDA.t70 div120_0.div2_3_1.CLK.t4 div120_0.div2_3_1.C.t2 GNDA.t69 sky130_fd_pr__nfet_01v8 ad=0.1 pd=0.9 as=0.2 ps=1.8 w=0.5 l=0.15
X39 VDDA.t58 div120_0.div4.t3 div120_0.div2_3_0.CLK.t2 VDDA.t57 sky130_fd_pr__pfet_01v8 ad=0.1 pd=0.9 as=0.2 ps=1.8 w=0.5 l=0.15
X40 div120_0.div3_2_0.A.t1 div120_0.div3_2_0.CLK.t5 div120_0.div3_2_0.B.t1 GNDA.t91 sky130_fd_pr__nfet_01v8 ad=0.2 pd=1.8 as=0.1 ps=0.9 w=0.5 l=0.15
X41 div120_0.div2_3_2.A.t0 div120_0.div2_3_2.CLK.t4 div120_0.div2_3_2.B.t0 GNDA.t2 sky130_fd_pr__nfet_01v8 ad=0.2 pd=1.8 as=0.1 ps=0.9 w=0.5 l=0.15
X42 div120_0.div3_2_0.F.t0 div120_0.div3_2_0.CLK.t6 div120_0.div3_2_0.E.t1 GNDA.t90 sky130_fd_pr__nfet_01v8 ad=0.1 pd=0.9 as=0.2 ps=1.8 w=0.5 l=0.15
X43 div120_0.div3_2_0.I.t1 div120_0.div3_2_0.CLK.t7 VDDA.t56 VDDA.t55 sky130_fd_pr__pfet_01v8 ad=0.2 pd=1.8 as=0.1 ps=0.9 w=0.5 l=0.15
X44 div120_0.div5_0.M.t0 div120_0.div5_0.K.t2 VDDA.t9 VDDA.t8 sky130_fd_pr__pfet_01v8 ad=0.2 pd=1.8 as=0.1 ps=0.9 w=0.5 l=0.15
X45 VDDA.t11 div120_0.div8.t2 div120_0.div3_2_0.CLK.t0 VDDA.t10 sky130_fd_pr__pfet_01v8 ad=0.1 pd=0.9 as=0.2 ps=1.8 w=0.5 l=0.15
X46 div120_0.div5_0.C.t1 div120_0.div5_0.A.t4 GNDA.t57 GNDA.t56 sky130_fd_pr__nfet_01v8 ad=0.1 pd=0.9 as=0.2 ps=1.8 w=0.5 l=0.15
X47 a_938_966.t1 GNDA.t116 VDDA.t31 VDDA.t14 sky130_fd_pr__pfet_01v8 ad=0.43 pd=2.72 as=0.43 ps=2.72 w=0.86 l=0.15
X48 div120_0.div5_0.D.t3 div120_0.div24.t6 GNDA.t38 GNDA.t37 sky130_fd_pr__nfet_01v8 ad=0.1 pd=0.9 as=0.1 ps=0.9 w=0.5 l=0.15
X49 div120_0.div3_2_0.E.t0 div120_0.div3_2_0.I.t5 VDDA.t33 VDDA.t32 sky130_fd_pr__pfet_01v8 ad=0.2 pd=1.8 as=0.1 ps=0.9 w=0.5 l=0.15
X50 div120_0.div5_0.I.t1 V_OUT120.t4 GNDA.t77 GNDA.t76 sky130_fd_pr__nfet_01v8 ad=0.2 pd=1.8 as=0.1 ps=0.9 w=0.5 l=0.15
X51 GNDA.t53 div120_0.div8.t3 div120_0.div3_2_0.CLK.t1 GNDA.t52 sky130_fd_pr__nfet_01v8 ad=0.1 pd=0.9 as=0.2 ps=1.8 w=0.5 l=0.15
X52 VDDA.t90 div120_0.div4.t4 div120_0.div2_3_2.A.t1 VDDA.t89 sky130_fd_pr__pfet_01v8 ad=0.1 pd=0.9 as=0.2 ps=1.8 w=0.5 l=0.15
X53 a_1492_966.t2 a_110_1544.t4 VDDA.t70 VDDA.t69 sky130_fd_pr__pfet_01v8 ad=1 pd=5 as=1 ps=5 w=2 l=1.5
X54 GNDA.t32 V_CONT.t3 a_110_1544.t0 GNDA.t31 sky130_fd_pr__nfet_01v8 ad=0.5 pd=3 as=0.5 ps=3 w=1 l=0.15
X55 GNDA.t89 div120_0.div3_2_0.CLK.t8 div120_0.div3_2_0.H.t1 GNDA.t88 sky130_fd_pr__nfet_01v8 ad=0.1 pd=0.9 as=0.1 ps=0.9 w=0.5 l=0.15
X56 a_938_966.t2 a_110_1544.t5 VDDA.t68 VDDA.t67 sky130_fd_pr__pfet_01v8 ad=1 pd=5 as=1 ps=5 w=2 l=1.5
X57 VDDA.t76 div120_0.div5_0.G.t3 div120_0.div5_0.J.t0 VDDA.t75 sky130_fd_pr__pfet_01v8 ad=0.1 pd=0.9 as=0.2 ps=1.8 w=0.5 l=0.15
X58 div120_0.div3_2_0.D.t1 div120_0.div3_2_0.CLK.t9 VDDA.t54 VDDA.t53 sky130_fd_pr__pfet_01v8 ad=0.2 pd=1.8 as=0.2 ps=1.8 w=0.5 l=0.15
X59 VDDA.t1 div120_0.div3_2_0.I.t6 div120_0.div24.t1 VDDA.t0 sky130_fd_pr__pfet_01v8 ad=0.2 pd=1.8 as=0.1 ps=0.9 w=0.5 l=0.15
X60 div120_0.div2_3_0.CLK.t1 div120_0.div4.t5 VDDA.t80 VDDA.t79 sky130_fd_pr__pfet_01v8 ad=0.2 pd=1.8 as=0.1 ps=0.9 w=0.5 l=0.15
X61 div120_0.div2_3_1.B.t0 div120_0.div2.t3 GNDA.t63 GNDA.t62 sky130_fd_pr__nfet_01v8 ad=0.1 pd=0.9 as=0.1 ps=0.9 w=0.5 l=0.15
X62 div120_0.div2_3_0.B.t0 div120_0.div8.t4 GNDA.t23 GNDA.t22 sky130_fd_pr__nfet_01v8 ad=0.1 pd=0.9 as=0.1 ps=0.9 w=0.5 l=0.15
X63 VDDA.t28 div120_0.div8.t5 div120_0.div2_3_0.A.t0 VDDA.t27 sky130_fd_pr__pfet_01v8 ad=0.1 pd=0.9 as=0.2 ps=1.8 w=0.5 l=0.15
X64 div120_0.div5_0.I.t0 div120_0.div5_0.Q2_b.t5 div120_0.div5_0.H.t0 GNDA.t49 sky130_fd_pr__nfet_01v8 ad=0.1 pd=0.9 as=0.1 ps=0.9 w=0.5 l=0.15
X65 div120_0.div5_0.F.t1 div120_0.div5_0.E.t3 VDDA.t22 VDDA.t21 sky130_fd_pr__pfet_01v8 ad=0.1 pd=0.9 as=0.1 ps=0.9 w=0.5 l=0.15
X66 VDDA.t39 V_OSC.t4 div120_0.div2_3_1.CLK.t1 VDDA.t38 sky130_fd_pr__pfet_01v8 ad=0.1 pd=0.9 as=0.2 ps=1.8 w=0.5 l=0.15
X67 GNDA.t8 div120_0.div2_3_2.CLK.t5 div120_0.div2_3_2.C.t2 GNDA.t7 sky130_fd_pr__nfet_01v8 ad=0.1 pd=0.9 as=0.1 ps=0.9 w=0.5 l=0.15
X68 GNDA.t87 div120_0.div3_2_0.CLK.t10 div120_0.div3_2_0.C.t1 GNDA.t86 sky130_fd_pr__nfet_01v8 ad=0.1 pd=0.9 as=0.1 ps=0.9 w=0.5 l=0.15
X69 div120_0.div2_3_1.C.t0 div120_0.div2_3_1.A.t2 VDDA.t13 VDDA.t12 sky130_fd_pr__pfet_01v8 ad=0.2 pd=1.8 as=0.1 ps=0.9 w=0.5 l=0.15
X70 GNDA.t30 div120_0.div24.t7 div120_0.div5_0.D.t2 GNDA.t29 sky130_fd_pr__nfet_01v8 ad=0.1 pd=0.9 as=0.1 ps=0.9 w=0.5 l=0.15
X71 GNDA.t85 div120_0.div3_2_0.CLK.t11 div120_0.div3_2_0.H.t0 GNDA.t84 sky130_fd_pr__nfet_01v8 ad=0.1 pd=0.9 as=0.2 ps=1.8 w=0.5 l=0.15
X72 div120_0.div5_0.D.t0 div120_0.div5_0.B.t2 VDDA.t5 VDDA.t4 sky130_fd_pr__pfet_01v8 ad=0.2 pd=1.8 as=0.1 ps=0.9 w=0.5 l=0.15
X73 div120_0.div5_0.A.t0 div120_0.div5_0.Q2_b.t6 GNDA.t97 GNDA.t96 sky130_fd_pr__nfet_01v8 ad=0.2 pd=1.8 as=0.2 ps=1.8 w=0.5 l=0.15
X74 VDDA.t3 div120_0.div24.t8 div120_0.div3_2_0.A.t0 VDDA.t2 sky130_fd_pr__pfet_01v8 ad=0.1 pd=0.9 as=0.2 ps=1.8 w=0.5 l=0.15
X75 VDDA.t66 div120_0.div2.t4 div120_0.div2_3_2.CLK.t1 VDDA.t65 sky130_fd_pr__pfet_01v8 ad=0.1 pd=0.9 as=0.2 ps=1.8 w=0.5 l=0.15
X76 div120_0.div8.t0 div120_0.div2_3_0.C.t4 GNDA.t44 GNDA.t43 sky130_fd_pr__nfet_01v8 ad=0.2 pd=1.8 as=0.1 ps=0.9 w=0.5 l=0.15
X77 div120_0.div5_0.K.t1 div120_0.div5_0.Q2_b.t7 div120_0.div5_0.L.t1 GNDA.t114 sky130_fd_pr__nfet_01v8 ad=0.2 pd=1.8 as=0.1 ps=0.9 w=0.5 l=0.15
X78 div120_0.div2.t0 div120_0.div2_3_1.C.t4 GNDA.t21 GNDA.t20 sky130_fd_pr__nfet_01v8 ad=0.2 pd=1.8 as=0.1 ps=0.9 w=0.5 l=0.15
X79 div120_0.div2.t1 div120_0.div2_3_1.CLK.t5 VDDA.t45 VDDA.t44 sky130_fd_pr__pfet_01v8 ad=0.2 pd=1.8 as=0.2 ps=1.8 w=0.5 l=0.15
X80 GNDA.t113 div120_0.div5_0.Q2_b.t8 div120_0.div5_0.M.t3 GNDA.t112 sky130_fd_pr__nfet_01v8 ad=0.1 pd=0.9 as=0.1 ps=0.9 w=0.5 l=0.15
X81 GNDA.t12 div120_0.div24.t9 div120_0.div5_0.J.t2 GNDA.t11 sky130_fd_pr__nfet_01v8 ad=0.1 pd=0.9 as=0.1 ps=0.9 w=0.5 l=0.15
X82 GNDA.t1 div120_0.div2_3_2.CLK.t6 div120_0.div2_3_2.C.t1 GNDA.t0 sky130_fd_pr__nfet_01v8 ad=0.1 pd=0.9 as=0.2 ps=1.8 w=0.5 l=0.15
X83 GNDA.t6 div120_0.div2.t5 div120_0.div2_3_2.CLK.t0 GNDA.t5 sky130_fd_pr__nfet_01v8 ad=0.1 pd=0.9 as=0.2 ps=1.8 w=0.5 l=0.15
X84 div120_0.div4.t1 div120_0.div2_3_2.CLK.t7 VDDA.t52 VDDA.t51 sky130_fd_pr__pfet_01v8 ad=0.2 pd=1.8 as=0.2 ps=1.8 w=0.5 l=0.15
X85 div120_0.div2_3_0.C.t1 div120_0.div2_3_0.CLK.t5 GNDA.t28 GNDA.t27 sky130_fd_pr__nfet_01v8 ad=0.1 pd=0.9 as=0.1 ps=0.9 w=0.5 l=0.15
X86 div120_0.div2_3_1.C.t1 div120_0.div2_3_1.CLK.t6 GNDA.t68 GNDA.t67 sky130_fd_pr__nfet_01v8 ad=0.1 pd=0.9 as=0.1 ps=0.9 w=0.5 l=0.15
X87 GNDA.t55 div120_0.div5_0.Q2_b.t9 div120_0.div5_0.M.t2 GNDA.t54 sky130_fd_pr__nfet_01v8 ad=0.1 pd=0.9 as=0.2 ps=1.8 w=0.5 l=0.15
X88 a_2046_966.t1 V_OSC.t5 a_1462_718.t1 VDDA.t29 sky130_fd_pr__pfet_01v8 ad=0.43 pd=2.72 as=0.43 ps=2.72 w=0.86 l=0.15
X89 VDDA.t64 div120_0.div2.t6 div120_0.div2_3_1.A.t0 VDDA.t63 sky130_fd_pr__pfet_01v8 ad=0.1 pd=0.9 as=0.2 ps=1.8 w=0.5 l=0.15
X90 GNDA.t36 div120_0.div24.t10 div120_0.div5_0.J.t1 GNDA.t35 sky130_fd_pr__nfet_01v8 ad=0.1 pd=0.9 as=0.2 ps=1.8 w=0.5 l=0.15
X91 div120_0.div3_2_0.G.t1 div120_0.div3_2_0.D.t2 div120_0.div3_2_0.F.t1 GNDA.t73 sky130_fd_pr__nfet_01v8 ad=0.1 pd=0.9 as=0.1 ps=0.9 w=0.5 l=0.15
X92 div120_0.div8.t1 div120_0.div2_3_0.CLK.t6 VDDA.t16 VDDA.t15 sky130_fd_pr__pfet_01v8 ad=0.2 pd=1.8 as=0.2 ps=1.8 w=0.5 l=0.15
X93 GNDA.t19 div120_0.div4.t6 div120_0.div2_3_0.CLK.t0 GNDA.t18 sky130_fd_pr__nfet_01v8 ad=0.1 pd=0.9 as=0.2 ps=1.8 w=0.5 l=0.15
X94 a_1492_966.t0 a_1462_718.t2 a_908_718.t0 VDDA.t23 sky130_fd_pr__pfet_01v8 ad=0.43 pd=2.72 as=0.43 ps=2.72 w=0.86 l=0.15
X95 VDDA.t35 div120_0.div5_0.Q2_b.t10 div120_0.div5_0.A.t1 VDDA.t34 sky130_fd_pr__pfet_01v8 ad=0.1 pd=0.9 as=0.2 ps=1.8 w=0.5 l=0.15
X96 div120_0.div3_2_0.CLK.t2 div120_0.div8.t6 VDDA.t60 VDDA.t59 sky130_fd_pr__pfet_01v8 ad=0.2 pd=1.8 as=0.1 ps=0.9 w=0.5 l=0.15
X97 div120_0.div5_0.B.t0 div120_0.div24.t11 div120_0.div5_0.C.t0 GNDA.t107 sky130_fd_pr__nfet_01v8 ad=0.2 pd=1.8 as=0.1 ps=0.9 w=0.5 l=0.15
X98 a_938_966.t0 a_908_718.t2 V_OSC.t0 VDDA.t14 sky130_fd_pr__pfet_01v8 ad=0.43 pd=2.72 as=0.43 ps=2.72 w=0.86 l=0.15
X99 VDDA.t37 div120_0.div3_2_0.E.t3 div120_0.div3_2_0.H.t3 VDDA.t36 sky130_fd_pr__pfet_01v8 ad=0.1 pd=0.9 as=0.2 ps=1.8 w=0.5 l=0.15
X100 div120_0.div3_2_0.B.t0 div120_0.div24.t12 GNDA.t106 GNDA.t105 sky130_fd_pr__nfet_01v8 ad=0.1 pd=0.9 as=0.1 ps=0.9 w=0.5 l=0.15
X101 a_2046_228.t1 V_OSC.t6 a_1462_718.t0 GNDA.t39 sky130_fd_pr__nfet_01v8 ad=0.215 pd=1.86 as=0.215 ps=1.86 w=0.43 l=0.15
X102 V_OUT120.t1 div120_0.div5_0.Q2_b.t11 VDDA.t86 VDDA.t85 sky130_fd_pr__pfet_01v8 ad=0.2 pd=1.8 as=0.2 ps=1.8 w=0.5 l=0.15
X103 a_1492_966.t1 GNDA.t117 VDDA.t24 VDDA.t23 sky130_fd_pr__pfet_01v8 ad=0.43 pd=2.72 as=0.43 ps=2.72 w=0.86 l=0.15
X104 div120_0.div2_3_2.C.t0 div120_0.div2_3_2.A.t2 VDDA.t7 VDDA.t6 sky130_fd_pr__pfet_01v8 ad=0.2 pd=1.8 as=0.1 ps=0.9 w=0.5 l=0.15
X105 div120_0.div3_2_0.I.t0 div120_0.div3_2_0.H.t4 GNDA.t17 GNDA.t16 sky130_fd_pr__nfet_01v8 ad=0.2 pd=1.8 as=0.1 ps=0.9 w=0.5 l=0.15
X106 VDDA.t49 V_OUT120.t5 div120_0.div5_0.K.t0 VDDA.t48 sky130_fd_pr__pfet_01v8 ad=0.1 pd=0.9 as=0.2 ps=1.8 w=0.5 l=0.15
X107 GNDA.t83 div120_0.div3_2_0.CLK.t12 div120_0.div3_2_0.C.t0 GNDA.t82 sky130_fd_pr__nfet_01v8 ad=0.1 pd=0.9 as=0.2 ps=1.8 w=0.5 l=0.15
X108 div120_0.div5_0.Q2_b.t1 div120_0.div24.t13 VDDA.t26 VDDA.t25 sky130_fd_pr__pfet_01v8 ad=0.2 pd=1.8 as=0.1 ps=0.9 w=0.5 l=0.15
X109 a_1492_228.t1 a_1462_718.t3 a_908_718.t1 GNDA.t3 sky130_fd_pr__nfet_01v8 ad=0.215 pd=1.86 as=0.215 ps=1.86 w=0.43 l=0.15
X110 GNDA.t61 div120_0.div24.t14 div120_0.div5_0.D.t1 GNDA.t60 sky130_fd_pr__nfet_01v8 ad=0.1 pd=0.9 as=0.2 ps=1.8 w=0.5 l=0.15
X111 div120_0.div2_3_1.A.t1 div120_0.div2_3_1.CLK.t7 div120_0.div2_3_1.B.t1 GNDA.t66 sky130_fd_pr__nfet_01v8 ad=0.2 pd=1.8 as=0.1 ps=0.9 w=0.5 l=0.15
X112 VDDA.t62 div120_0.div3_2_0.D.t3 div120_0.div3_2_0.E.t2 VDDA.t61 sky130_fd_pr__pfet_01v8 ad=0.1 pd=0.9 as=0.2 ps=1.8 w=0.5 l=0.15
X113 a_938_228.t0 a_908_718.t3 V_OSC.t1 GNDA.t14 sky130_fd_pr__nfet_01v8 ad=0.215 pd=1.86 as=0.215 ps=1.86 w=0.43 l=0.15
X114 div120_0.div2_3_0.A.t1 div120_0.div2_3_0.CLK.t7 div120_0.div2_3_0.B.t1 GNDA.t26 sky130_fd_pr__nfet_01v8 ad=0.2 pd=1.8 as=0.1 ps=0.9 w=0.5 l=0.15
X115 div120_0.div2_3_0.C.t0 div120_0.div2_3_0.A.t2 VDDA.t18 VDDA.t17 sky130_fd_pr__pfet_01v8 ad=0.2 pd=1.8 as=0.1 ps=0.9 w=0.5 l=0.15
R0 a_110_1544.t0 a_110_1544.n2 466.82
R1 a_110_1544.n2 a_110_1544.t1 225.869
R2 a_110_1544.n2 a_110_1544.t2 225.786
R3 a_110_1544.t1 a_110_1544.n1 188.501
R4 a_110_1544.n0 a_110_1544.t3 188.501
R5 a_110_1544.n1 a_110_1544.n0 107.442
R6 a_110_1544.n1 a_110_1544.t5 81.0592
R7 a_110_1544.n0 a_110_1544.t4 81.0592
R8 VDDA.t83 VDDA.t19 2804.76
R9 VDDA.t48 VDDA.t25 2533.33
R10 VDDA.t53 VDDA.t61 2307.14
R11 VDDA.t55 VDDA.t46 2126.19
R12 VDDA.t10 VDDA.t15 2080.95
R13 VDDA.t51 VDDA.t57 2080.95
R14 VDDA.t65 VDDA.t44 2080.95
R15 VDDA.t81 VDDA.t87 1538.1
R16 VDDA.t75 VDDA.t50 1492.86
R17 VDDA.t32 VDDA.t36 1492.86
R18 VDDA.t29 VDDA.t38 1406.73
R19 VDDA.n10 VDDA.t8 1289.29
R20 VDDA.t4 VDDA.n31 1289.29
R21 VDDA.t0 VDDA.t34 1130.95
R22 VDDA.t2 VDDA.t59 1130.95
R23 VDDA.t79 VDDA.t27 1130.95
R24 VDDA.t89 VDDA.t42 1130.95
R25 VDDA.t40 VDDA.t63 1130.95
R26 VDDA.n1 VDDA.t91 1007.38
R27 VDDA.n32 VDDA.t77 927.381
R28 VDDA.t17 VDDA.n46 927.381
R29 VDDA.n47 VDDA.t6 927.381
R30 VDDA.t12 VDDA.n62 927.381
R31 VDDA.n23 VDDA.t47 673.101
R32 VDDA.n24 VDDA.t1 673.101
R33 VDDA.n11 VDDA.t86 667.62
R34 VDDA.n3 VDDA.t45 663.801
R35 VDDA.n5 VDDA.t52 663.801
R36 VDDA.n6 VDDA.t16 663.801
R37 VDDA.n8 VDDA.t54 663.801
R38 VDDA.n9 VDDA.t20 663.801
R39 VDDA.n2 VDDA.t93 618.567
R40 VDDA.n10 VDDA.t85 610.715
R41 VDDA.n31 VDDA.t19 610.715
R42 VDDA.n32 VDDA.t53 610.715
R43 VDDA.n46 VDDA.t15 610.715
R44 VDDA.n47 VDDA.t51 610.715
R45 VDDA.n62 VDDA.t44 610.715
R46 VDDA.n57 VDDA.n56 594.301
R47 VDDA.n59 VDDA.n58 594.301
R48 VDDA.n53 VDDA.n52 594.301
R49 VDDA.n51 VDDA.n50 594.301
R50 VDDA.n41 VDDA.n40 594.301
R51 VDDA.n43 VDDA.n42 594.301
R52 VDDA.n38 VDDA.n37 594.301
R53 VDDA.n36 VDDA.n35 594.301
R54 VDDA.n20 VDDA.n19 594.301
R55 VDDA.n22 VDDA.n21 594.301
R56 VDDA.n26 VDDA.n25 594.301
R57 VDDA.n28 VDDA.n27 594.301
R58 VDDA.n17 VDDA.n16 594.301
R59 VDDA.n15 VDDA.n14 594.301
R60 VDDA.n13 VDDA.n12 594.301
R61 VDDA.t8 VDDA.t48 497.62
R62 VDDA.t25 VDDA.t75 497.62
R63 VDDA.t50 VDDA.t21 497.62
R64 VDDA.t21 VDDA.t83 497.62
R65 VDDA.t87 VDDA.t4 497.62
R66 VDDA.t34 VDDA.t81 497.62
R67 VDDA.t46 VDDA.t0 497.62
R68 VDDA.t36 VDDA.t55 497.62
R69 VDDA.t61 VDDA.t32 497.62
R70 VDDA.t77 VDDA.t2 497.62
R71 VDDA.t59 VDDA.t10 497.62
R72 VDDA.t27 VDDA.t17 497.62
R73 VDDA.t57 VDDA.t79 497.62
R74 VDDA.t6 VDDA.t89 497.62
R75 VDDA.t42 VDDA.t65 497.62
R76 VDDA.t63 VDDA.t12 497.62
R77 VDDA.t38 VDDA.t40 497.62
R78 VDDA.t67 VDDA.t71 488.219
R79 VDDA.t23 VDDA.t73 480.288
R80 VDDA.n11 VDDA.n10 373.781
R81 VDDA.n31 VDDA.n30 370
R82 VDDA.n33 VDDA.n32 370
R83 VDDA.n46 VDDA.n45 370
R84 VDDA.n48 VDDA.n47 370
R85 VDDA.n62 VDDA.n61 370
R86 VDDA.n64 VDDA.n2 357.406
R87 VDDA.n67 VDDA.t31 354.418
R88 VDDA.n55 VDDA.t30 354.418
R89 VDDA.n64 VDDA.t24 349.767
R90 VDDA.n63 VDDA.t14 341.048
R91 VDDA.n2 VDDA.n1 308.481
R92 VDDA.n64 VDDA.n63 185
R93 VDDA.n69 VDDA.t72 143.486
R94 VDDA.n68 VDDA.t68 143.486
R95 VDDA.n66 VDDA.t70 143.486
R96 VDDA.n0 VDDA.t74 143.486
R97 VDDA.n63 VDDA.t69 139.239
R98 VDDA.n1 VDDA.t92 117.287
R99 VDDA.n56 VDDA.t41 78.8005
R100 VDDA.n56 VDDA.t39 78.8005
R101 VDDA.n58 VDDA.t13 78.8005
R102 VDDA.n58 VDDA.t64 78.8005
R103 VDDA.n52 VDDA.t43 78.8005
R104 VDDA.n52 VDDA.t66 78.8005
R105 VDDA.n50 VDDA.t7 78.8005
R106 VDDA.n50 VDDA.t90 78.8005
R107 VDDA.n40 VDDA.t80 78.8005
R108 VDDA.n40 VDDA.t58 78.8005
R109 VDDA.n42 VDDA.t18 78.8005
R110 VDDA.n42 VDDA.t28 78.8005
R111 VDDA.n37 VDDA.t60 78.8005
R112 VDDA.n37 VDDA.t11 78.8005
R113 VDDA.n35 VDDA.t78 78.8005
R114 VDDA.n35 VDDA.t3 78.8005
R115 VDDA.n19 VDDA.t33 78.8005
R116 VDDA.n19 VDDA.t62 78.8005
R117 VDDA.n21 VDDA.t56 78.8005
R118 VDDA.n21 VDDA.t37 78.8005
R119 VDDA.n25 VDDA.t82 78.8005
R120 VDDA.n25 VDDA.t35 78.8005
R121 VDDA.n27 VDDA.t5 78.8005
R122 VDDA.n27 VDDA.t88 78.8005
R123 VDDA.n16 VDDA.t22 78.8005
R124 VDDA.n16 VDDA.t84 78.8005
R125 VDDA.n14 VDDA.t26 78.8005
R126 VDDA.n14 VDDA.t76 78.8005
R127 VDDA.n12 VDDA.t9 78.8005
R128 VDDA.n12 VDDA.t49 78.8005
R129 VDDA.n61 VDDA.n3 12.8005
R130 VDDA.n48 VDDA.n5 12.8005
R131 VDDA.n45 VDDA.n6 12.8005
R132 VDDA.n33 VDDA.n8 12.8005
R133 VDDA.n30 VDDA.n9 12.8005
R134 VDDA.n18 VDDA.n9 9.3005
R135 VDDA.n30 VDDA.n29 9.3005
R136 VDDA.n8 VDDA.n7 9.3005
R137 VDDA.n34 VDDA.n33 9.3005
R138 VDDA.n39 VDDA.n6 9.3005
R139 VDDA.n45 VDDA.n44 9.3005
R140 VDDA.n5 VDDA.n4 9.3005
R141 VDDA.n49 VDDA.n48 9.3005
R142 VDDA.n54 VDDA.n3 9.3005
R143 VDDA.n61 VDDA.n60 9.3005
R144 VDDA.t73 VDDA.t29 7.93185
R145 VDDA.t69 VDDA.t23 7.93185
R146 VDDA.t14 VDDA.t67 7.93185
R147 VDDA.n13 VDDA.n11 3.20124
R148 VDDA.n65 VDDA.n64 2.32108
R149 VDDA.n18 VDDA.n17 0.913
R150 VDDA.n15 VDDA.n13 0.838
R151 VDDA.n20 VDDA.n7 0.7755
R152 VDDA.n17 VDDA.n15 0.688
R153 VDDA.n23 VDDA.n22 0.588
R154 VDDA.n28 VDDA.n26 0.563
R155 VDDA.n22 VDDA.n20 0.5505
R156 VDDA.n39 VDDA 0.4755
R157 VDDA VDDA.n4 0.4755
R158 VDDA.n54 VDDA 0.4755
R159 VDDA.n38 VDDA.n36 0.4505
R160 VDDA.n43 VDDA.n41 0.4505
R161 VDDA.n53 VDDA.n51 0.4505
R162 VDDA.n59 VDDA.n57 0.4505
R163 VDDA.n29 VDDA.n28 0.4255
R164 VDDA.n36 VDDA.n34 0.3255
R165 VDDA.n44 VDDA.n43 0.3255
R166 VDDA.n51 VDDA.n49 0.3255
R167 VDDA.n60 VDDA.n59 0.3255
R168 VDDA.n24 VDDA.n23 0.2755
R169 VDDA VDDA.n55 0.268714
R170 VDDA.n26 VDDA 0.238
R171 VDDA VDDA.n38 0.238
R172 VDDA.n41 VDDA 0.238
R173 VDDA VDDA.n53 0.238
R174 VDDA.n57 VDDA 0.238
R175 VDDA.n29 VDDA.n18 0.1005
R176 VDDA.n34 VDDA.n7 0.1005
R177 VDDA.n44 VDDA.n39 0.1005
R178 VDDA.n49 VDDA.n4 0.1005
R179 VDDA.n60 VDDA.n54 0.1005
R180 VDDA.n65 VDDA.n0 0.0901819
R181 VDDA VDDA.n69 0.0875743
R182 VDDA.n67 VDDA.n66 0.0798344
R183 VDDA VDDA.n24 0.0755
R184 VDDA.n69 VDDA.n68 0.0302988
R185 VDDA.n55 VDDA.n0 0.0283638
R186 VDDA.n68 VDDA.n67 0.0283638
R187 VDDA.n66 VDDA.n65 0.0189745
R188 a_2046_966.n0 a_2046_966.t1 398.087
R189 a_2046_966.t0 a_2046_966.n0 349.767
R190 a_2046_966.n0 a_2046_966.t2 212.364
R191 div120_0.div5_0.E.n0 div120_0.div5_0.E.t3 1207.57
R192 div120_0.div5_0.E.n0 div120_0.div5_0.E.t0 723
R193 div120_0.div5_0.E.t3 div120_0.div5_0.E.t2 514.134
R194 div120_0.div5_0.E.t1 div120_0.div5_0.E.n0 314.921
R195 div120_0.div5_0.I.n0 div120_0.div5_0.I.t1 531.067
R196 div120_0.div5_0.I.n0 div120_0.div5_0.I.t2 48.0005
R197 div120_0.div5_0.I.t0 div120_0.div5_0.I.n0 48.0005
R198 GNDA.t14 GNDA.t31 2698.92
R199 GNDA.t3 GNDA.t14 2632.4
R200 GNDA.t39 GNDA.t64 2472.44
R201 GNDA.n64 GNDA.t3 1848.38
R202 GNDA.t45 GNDA.t96 1619.63
R203 GNDA.t47 GNDA.t13 1574.64
R204 GNDA.t50 GNDA.t78 1529.65
R205 GNDA.t76 GNDA.t35 1484.66
R206 GNDA.t90 GNDA.t41 1484.66
R207 GNDA.t82 GNDA.t91 1484.66
R208 GNDA.t26 GNDA.t24 1484.66
R209 GNDA.t0 GNDA.t2 1484.66
R210 GNDA.t66 GNDA.t69 1484.66
R211 GNDA.t96 GNDA.n29 1417.18
R212 GNDA.n47 GNDA.n46 1179.3
R213 GNDA.n49 GNDA.n48 1179.3
R214 GNDA.n63 GNDA.n62 1179.3
R215 GNDA.n65 GNDA.n64 1170
R216 GNDA.n31 GNDA.n30 1170
R217 GNDA.n29 GNDA.n28 1170
R218 GNDA.t114 GNDA.t54 1124.74
R219 GNDA.t107 GNDA.t60 1124.74
R220 GNDA.t16 GNDA.t45 1124.74
R221 GNDA.n2 GNDA.t116 1076.47
R222 GNDA.n30 GNDA.t84 877.302
R223 GNDA.n47 GNDA.t52 877.302
R224 GNDA.t43 GNDA.n47 877.302
R225 GNDA.n48 GNDA.t18 877.302
R226 GNDA.n48 GNDA.t110 877.302
R227 GNDA.n63 GNDA.t5 877.302
R228 GNDA.t20 GNDA.n63 877.302
R229 GNDA.n64 GNDA.t39 784.018
R230 GNDA.n29 GNDA.t56 607.362
R231 GNDA.n30 GNDA.t74 607.362
R232 GNDA.n3 GNDA.n2 504.493
R233 GNDA.t112 GNDA.t9 494.889
R234 GNDA.t33 GNDA.t112 494.889
R235 GNDA.t54 GNDA.t33 494.889
R236 GNDA.t78 GNDA.t114 494.889
R237 GNDA.t11 GNDA.t50 494.889
R238 GNDA.t108 GNDA.t11 494.889
R239 GNDA.t35 GNDA.t108 494.889
R240 GNDA.t101 GNDA.t76 494.889
R241 GNDA.t49 GNDA.t101 494.889
R242 GNDA.t13 GNDA.t49 494.889
R243 GNDA.t29 GNDA.t47 494.889
R244 GNDA.t37 GNDA.t29 494.889
R245 GNDA.t60 GNDA.t37 494.889
R246 GNDA.t56 GNDA.t107 494.889
R247 GNDA.t88 GNDA.t16 494.889
R248 GNDA.t103 GNDA.t88 494.889
R249 GNDA.t84 GNDA.t103 494.889
R250 GNDA.t74 GNDA.t73 494.889
R251 GNDA.t73 GNDA.t90 494.889
R252 GNDA.t41 GNDA.t86 494.889
R253 GNDA.t86 GNDA.t92 494.889
R254 GNDA.t92 GNDA.t82 494.889
R255 GNDA.t91 GNDA.t105 494.889
R256 GNDA.t105 GNDA.t52 494.889
R257 GNDA.t80 GNDA.t43 494.889
R258 GNDA.t27 GNDA.t80 494.889
R259 GNDA.t24 GNDA.t27 494.889
R260 GNDA.t22 GNDA.t26 494.889
R261 GNDA.t18 GNDA.t22 494.889
R262 GNDA.t110 GNDA.t7 494.889
R263 GNDA.t7 GNDA.t94 494.889
R264 GNDA.t94 GNDA.t0 494.889
R265 GNDA.t2 GNDA.t58 494.889
R266 GNDA.t58 GNDA.t5 494.889
R267 GNDA.t71 GNDA.t20 494.889
R268 GNDA.t67 GNDA.t71 494.889
R269 GNDA.t69 GNDA.t67 494.889
R270 GNDA.t62 GNDA.t66 494.889
R271 GNDA.t64 GNDA.t62 494.889
R272 GNDA.n3 GNDA.t115 491.64
R273 GNDA.n65 GNDA.n3 352.723
R274 GNDA.n68 GNDA.t98 264.067
R275 GNDA.n67 GNDA.t99 264.067
R276 GNDA.n1 GNDA.t100 254.768
R277 GNDA.n25 GNDA.t46 242.3
R278 GNDA.n26 GNDA.t97 242.3
R279 GNDA.n9 GNDA.t79 242.3
R280 GNDA.n32 GNDA.t75 233
R281 GNDA.n5 GNDA.t57 233
R282 GNDA.n8 GNDA.n6 194.576
R283 GNDA.n57 GNDA.n56 194.3
R284 GNDA.n59 GNDA.n58 194.3
R285 GNDA.n61 GNDA.n60 194.3
R286 GNDA.n55 GNDA.n54 194.3
R287 GNDA.n53 GNDA.n52 194.3
R288 GNDA.n51 GNDA.n50 194.3
R289 GNDA.n41 GNDA.n40 194.3
R290 GNDA.n43 GNDA.n42 194.3
R291 GNDA.n45 GNDA.n44 194.3
R292 GNDA.n39 GNDA.n38 194.3
R293 GNDA.n37 GNDA.n36 194.3
R294 GNDA.n35 GNDA.n34 194.3
R295 GNDA.n22 GNDA.n21 194.3
R296 GNDA.n24 GNDA.n23 194.3
R297 GNDA.n19 GNDA.n18 194.3
R298 GNDA.n17 GNDA.n16 194.3
R299 GNDA.n15 GNDA.n14 194.3
R300 GNDA.n13 GNDA.n12 194.3
R301 GNDA.n11 GNDA.n10 194.3
R302 GNDA.n8 GNDA.n7 194.3
R303 GNDA.n2 GNDA.t117 186.374
R304 GNDA.n69 GNDA.t32 127.15
R305 GNDA.n68 GNDA.t15 127.15
R306 GNDA.n67 GNDA.t4 127.15
R307 GNDA.n0 GNDA.t40 127.15
R308 GNDA.n56 GNDA.t63 48.0005
R309 GNDA.n56 GNDA.t65 48.0005
R310 GNDA.n58 GNDA.t68 48.0005
R311 GNDA.n58 GNDA.t70 48.0005
R312 GNDA.n60 GNDA.t21 48.0005
R313 GNDA.n60 GNDA.t72 48.0005
R314 GNDA.n54 GNDA.t59 48.0005
R315 GNDA.n54 GNDA.t6 48.0005
R316 GNDA.n52 GNDA.t95 48.0005
R317 GNDA.n52 GNDA.t1 48.0005
R318 GNDA.n50 GNDA.t111 48.0005
R319 GNDA.n50 GNDA.t8 48.0005
R320 GNDA.n40 GNDA.t23 48.0005
R321 GNDA.n40 GNDA.t19 48.0005
R322 GNDA.n42 GNDA.t28 48.0005
R323 GNDA.n42 GNDA.t25 48.0005
R324 GNDA.n44 GNDA.t44 48.0005
R325 GNDA.n44 GNDA.t81 48.0005
R326 GNDA.n38 GNDA.t106 48.0005
R327 GNDA.n38 GNDA.t53 48.0005
R328 GNDA.n36 GNDA.t93 48.0005
R329 GNDA.n36 GNDA.t83 48.0005
R330 GNDA.n34 GNDA.t42 48.0005
R331 GNDA.n34 GNDA.t87 48.0005
R332 GNDA.n21 GNDA.t104 48.0005
R333 GNDA.n21 GNDA.t85 48.0005
R334 GNDA.n23 GNDA.t17 48.0005
R335 GNDA.n23 GNDA.t89 48.0005
R336 GNDA.n18 GNDA.t38 48.0005
R337 GNDA.n18 GNDA.t61 48.0005
R338 GNDA.n16 GNDA.t48 48.0005
R339 GNDA.n16 GNDA.t30 48.0005
R340 GNDA.n14 GNDA.t77 48.0005
R341 GNDA.n14 GNDA.t102 48.0005
R342 GNDA.n12 GNDA.t109 48.0005
R343 GNDA.n12 GNDA.t36 48.0005
R344 GNDA.n10 GNDA.t51 48.0005
R345 GNDA.n10 GNDA.t12 48.0005
R346 GNDA.n7 GNDA.t34 48.0005
R347 GNDA.n7 GNDA.t55 48.0005
R348 GNDA.n6 GNDA.t10 48.0005
R349 GNDA.n6 GNDA.t113 48.0005
R350 GNDA.n65 GNDA.n1 14.8842
R351 GNDA.n32 GNDA.n31 12.8005
R352 GNDA.n28 GNDA.n5 12.8005
R353 GNDA.n20 GNDA.n5 9.3005
R354 GNDA.n28 GNDA.n27 9.3005
R355 GNDA.n31 GNDA.n4 9.3005
R356 GNDA.n33 GNDA.n32 9.3005
R357 GNDA.n1 GNDA.n0 9.3005
R358 GNDA.n66 GNDA.n65 9.3005
R359 GNDA.n17 GNDA.n15 0.8505
R360 GNDA.n35 GNDA.n33 0.8255
R361 GNDA.n39 GNDA.n37 0.688
R362 GNDA.n43 GNDA.n41 0.688
R363 GNDA.n55 GNDA.n53 0.688
R364 GNDA.n59 GNDA.n57 0.688
R365 GNDA.n9 GNDA.n8 0.588
R366 GNDA.n20 GNDA.n19 0.588
R367 GNDA.n15 GNDA.n13 0.5505
R368 GNDA.n27 GNDA.n26 0.463
R369 GNDA.n11 GNDA.n9 0.4255
R370 GNDA GNDA.n25 0.3505
R371 GNDA.n25 GNDA.n24 0.313
R372 GNDA.n22 GNDA.n4 0.313
R373 GNDA.n46 GNDA.n45 0.313
R374 GNDA.n51 GNDA.n49 0.313
R375 GNDA.n62 GNDA.n61 0.313
R376 GNDA.n13 GNDA.n11 0.2755
R377 GNDA.n19 GNDA.n17 0.2755
R378 GNDA.n24 GNDA.n22 0.2755
R379 GNDA.n37 GNDA.n35 0.2755
R380 GNDA.n45 GNDA.n43 0.2755
R381 GNDA.n53 GNDA.n51 0.2755
R382 GNDA.n61 GNDA.n59 0.2755
R383 GNDA GNDA.n39 0.238
R384 GNDA.n41 GNDA 0.238
R385 GNDA GNDA.n55 0.238
R386 GNDA.n57 GNDA 0.238
R387 GNDA.n68 GNDA.n67 0.192861
R388 GNDA GNDA.n0 0.177962
R389 GNDA.n67 GNDA.n66 0.158139
R390 GNDA.n69 GNDA.n68 0.152583
R391 GNDA.n27 GNDA.n20 0.1005
R392 GNDA.n26 GNDA 0.1005
R393 GNDA.n33 GNDA.n4 0.1005
R394 GNDA.n46 GNDA 0.0755
R395 GNDA.n49 GNDA 0.0755
R396 GNDA.n62 GNDA 0.0755
R397 GNDA GNDA.n69 0.063
R398 GNDA.n66 GNDA.n0 0.0352222
R399 div120_0.div3_2_0.C.n2 div120_0.div3_2_0.C.t3 721.4
R400 div120_0.div3_2_0.C.n1 div120_0.div3_2_0.C.t4 350.349
R401 div120_0.div3_2_0.C.t0 div120_0.div3_2_0.C.n2 276.733
R402 div120_0.div3_2_0.C.n1 div120_0.div3_2_0.C.n0 206.333
R403 div120_0.div3_2_0.C.n0 div120_0.div3_2_0.C.t1 48.0005
R404 div120_0.div3_2_0.C.n0 div120_0.div3_2_0.C.t2 48.0005
R405 div120_0.div3_2_0.C.n2 div120_0.div3_2_0.C.n1 48.0005
R406 div120_0.div3_2_0.D.n1 div120_0.div3_2_0.D.n0 701.467
R407 div120_0.div3_2_0.D.n1 div120_0.div3_2_0.D.t1 694.201
R408 div120_0.div3_2_0.D.n0 div120_0.div3_2_0.D.t2 321.334
R409 div120_0.div3_2_0.D.t0 div120_0.div3_2_0.D.n1 314.921
R410 div120_0.div3_2_0.D.n0 div120_0.div3_2_0.D.t3 144.601
R411 V_OSC.n3 V_OSC.n2 2160.95
R412 V_OSC.t4 V_OSC.t2 401.668
R413 V_OSC.n2 V_OSC.t0 374.728
R414 V_OSC.n2 V_OSC.t1 271.567
R415 V_OSC.n0 V_OSC.t4 257.067
R416 div120_0.div2_3_1.VIN V_OSC.n0 216.9
R417 V_OSC.n1 V_OSC.t5 212.373
R418 V_OSC.n0 V_OSC.t3 208.868
R419 vco2_2_0.V_OSC div120_0.VIN 182.5
R420 V_OSC.n3 V_OSC.n1 181.013
R421 V_OSC.n1 V_OSC.t6 136.859
R422 vco2_2_0.V_OSC V_OSC.n3 44.8005
R423 div120_0.VIN div120_0.div2_3_1.VIN 32.1338
R424 div120_0.div2_3_1.CLK.n4 div120_0.div2_3_1.CLK.t1 723.534
R425 div120_0.div2_3_1.CLK.t2 div120_0.div2_3_1.CLK.n5 723.534
R426 div120_0.div2_3_1.CLK.n0 div120_0.div2_3_1.CLK.t5 369.534
R427 div120_0.div2_3_1.CLK.n3 div120_0.div2_3_1.CLK.n2 366.856
R428 div120_0.div2_3_1.CLK.n4 div120_0.div2_3_1.CLK.t0 254.333
R429 div120_0.div2_3_1.CLK.n3 div120_0.div2_3_1.CLK.t7 190.123
R430 div120_0.div2_3_1.CLK.n5 div120_0.div2_3_1.CLK.n3 187.201
R431 div120_0.div2_3_1.CLK.n1 div120_0.div2_3_1.CLK.n0 176.733
R432 div120_0.div2_3_1.CLK.n2 div120_0.div2_3_1.CLK.n1 176.733
R433 div120_0.div2_3_1.CLK.n0 div120_0.div2_3_1.CLK.t3 112.468
R434 div120_0.div2_3_1.CLK.n2 div120_0.div2_3_1.CLK.t4 112.468
R435 div120_0.div2_3_1.CLK.n1 div120_0.div2_3_1.CLK.t6 112.468
R436 div120_0.div2_3_1.CLK.n5 div120_0.div2_3_1.CLK.n4 70.4005
R437 V_OUT120.n2 V_OUT120.n1 2120.39
R438 V_OUT120.n1 V_OUT120.t2 1992.27
R439 V_OUT120.n3 V_OUT120.t1 751.801
R440 V_OUT120.t2 V_OUT120.t4 514.134
R441 V_OUT120.n0 V_OUT120.t3 289.2
R442 V_OUT120.n2 V_OUT120.t0 233
R443 V_OUT120.n1 V_OUT120.n0 208.868
R444 V_OUT120.n0 V_OUT120.t5 176.733
R445 V_OUT120.n3 V_OUT120.n2 40.3205
R446 V_OUT120 V_OUT120.n3 32.0005
R447 div120_0.div5_0.F.t0 div120_0.div5_0.F.t1 157.601
R448 div120_0.div5_0.G.n0 div120_0.div5_0.G.t0 685.134
R449 div120_0.div5_0.G.n1 div120_0.div5_0.G.t2 685.134
R450 div120_0.div5_0.G.n0 div120_0.div5_0.G.t3 534.268
R451 div120_0.div5_0.G.t1 div120_0.div5_0.G.n1 340.521
R452 div120_0.div5_0.G.n1 div120_0.div5_0.G.n0 105.6
R453 div120_0.div3_2_0.CLK.n3 div120_0.div3_2_0.CLK.n2 742.51