* PEX produced on Thu Feb 20 06:38:54 PM CET 2025 using /foss/tools/osic-multitool/iic-pex.sh with m=3 and s=1
* NGSPICE file created from VCO_FD_magic.ext - technology: sky130A

.subckt VCO_FD_magic V_OUT_120 VDDA GNDA V_CONT
X0 vco2_3_0.V4.t2 GNDA.t118 VDDA.t77 VDDA.t76 sky130_fd_pr__pfet_01v8 ad=0.4 pd=2.8 as=0.4 ps=2.8 w=1 l=0.15
X1 GNDA.t76 div120_2_0.div3_3_0.CLK.t3 div120_2_0.div3_3_0.H.t2 GNDA.t75 sky130_fd_pr__nfet_01v8 ad=0.1 pd=0.9 as=0.1 ps=0.9 w=0.5 l=0.15
X2 div120_2_0.div5_2_0.F.t1 div120_2_0.div5_2_0.E.t2 VDDA.t52 VDDA.t51 sky130_fd_pr__pfet_01v8 ad=0.1 pd=0.9 as=0.1 ps=0.9 w=0.5 l=0.15
X3 GNDA.t94 div120_2_0.div3_3_0.I.t2 div120_2_0.div3_3_0.G.t1 GNDA.t93 sky130_fd_pr__nfet_01v8 ad=0.2 pd=1.8 as=0.1 ps=0.9 w=0.5 l=0.15
X4 div120_2_0.div3_3_0.I.t0 div120_2_0.div3_3_0.CLK.t4 VDDA.t50 VDDA.t49 sky130_fd_pr__pfet_01v8 ad=0.2 pd=1.8 as=0.1 ps=0.9 w=0.5 l=0.15
X5 div120_2_0.div2.t1 a_2510_770.t3 VDDA.t14 VDDA.t13 sky130_fd_pr__pfet_01v8 ad=0.2 pd=1.8 as=0.2 ps=1.8 w=0.5 l=0.15
X6 div120_2_0.div2_4_0.C.t3 a_5110_770.t3 GNDA.t54 GNDA.t53 sky130_fd_pr__nfet_01v8 ad=0.1 pd=0.9 as=0.1 ps=0.9 w=0.5 l=0.15
X7 div120_2_0.div4.t1 div120_2_0.div2_4_2.C.t4 GNDA.t84 GNDA.t83 sky130_fd_pr__nfet_01v8 ad=0.2 pd=1.8 as=0.1 ps=0.9 w=0.5 l=0.15
X8 div120_2_0.div5_2_0.I.t2 div120_2_0.div5_2_0.Q2_b.t2 div120_2_0.div5_2_0.H.t1 GNDA.t107 sky130_fd_pr__nfet_01v8 ad=0.1 pd=0.9 as=0.1 ps=0.9 w=0.5 l=0.15
X9 vco2_3_0.V3.t1 vco2_3_0.V8.t2 V_OSC.t0 GNDA.t4 sky130_fd_pr__nfet_01v8 ad=0.2 pd=1.8 as=0.2 ps=1.8 w=0.5 l=0.2
X10 VDDA.t37 div120_2_0.div8.t2 div120_2_0.div3_3_0.CLK.t1 VDDA.t36 sky130_fd_pr__pfet_01v8 ad=0.1 pd=0.9 as=0.2 ps=1.8 w=0.5 l=0.15
X11 GNDA.t74 div120_2_0.div3_3_0.CLK.t5 div120_2_0.div3_3_0.C.t2 GNDA.t73 sky130_fd_pr__nfet_01v8 ad=0.1 pd=0.9 as=0.1 ps=0.9 w=0.5 l=0.15
X12 a_5110_770.t0 div120_2_0.div4.t2 VDDA.t6 VDDA.t5 sky130_fd_pr__pfet_01v8 ad=0.2 pd=1.8 as=0.1 ps=0.9 w=0.5 l=0.15
X13 GNDA.t72 div120_2_0.div3_3_0.CLK.t6 div120_2_0.div3_3_0.H.t1 GNDA.t71 sky130_fd_pr__nfet_01v8 ad=0.1 pd=0.9 as=0.2 ps=1.8 w=0.5 l=0.15
X14 div120_2_0.div3_3_0.A.t1 div120_2_0.div3_3_0.CLK.t7 div120_2_0.div3_3_0.B.t1 GNDA.t70 sky130_fd_pr__nfet_01v8 ad=0.2 pd=1.8 as=0.1 ps=0.9 w=0.5 l=0.15
X15 GNDA.t38 div120_2_0.div4.t3 a_5110_770.t2 GNDA.t37 sky130_fd_pr__nfet_01v8 ad=0.1 pd=0.9 as=0.2 ps=1.8 w=0.5 l=0.15
X16 VDDA.t71 div120_2_0.div8.t3 div120_2_0.div2_4_0.A.t0 VDDA.t70 sky130_fd_pr__pfet_01v8 ad=0.1 pd=0.9 as=0.2 ps=1.8 w=0.5 l=0.15
X17 div120_2_0.div3_3_0.F.t1 div120_2_0.div3_3_0.CLK.t8 div120_2_0.div3_3_0.E.t0 GNDA.t69 sky130_fd_pr__nfet_01v8 ad=0.1 pd=0.9 as=0.2 ps=1.8 w=0.5 l=0.15
X18 div120_2_0.div5_2_0.A.t0 div120_2_0.div5_2_0.Q2_b.t3 GNDA.t43 GNDA.t42 sky130_fd_pr__nfet_01v8 ad=0.2 pd=1.8 as=0.2 ps=1.8 w=0.5 l=0.15
X19 div120_2_0.div5_2_0.M.t0 div120_2_0.div5_2_0.K.t2 VDDA.t35 VDDA.t34 sky130_fd_pr__pfet_01v8 ad=0.2 pd=1.8 as=0.1 ps=0.9 w=0.5 l=0.15
X20 div120_2_0.div5_2_0.K.t1 div120_2_0.div5_2_0.Q2_b.t4 div120_2_0.div5_2_0.L.t0 GNDA.t41 sky130_fd_pr__nfet_01v8 ad=0.2 pd=1.8 as=0.1 ps=0.9 w=0.5 l=0.15
X21 VDDA.t41 div120_2_0.div5_2_0.G.t3 div120_2_0.div5_2_0.J.t0 VDDA.t40 sky130_fd_pr__pfet_01v8 ad=0.1 pd=0.9 as=0.2 ps=1.8 w=0.5 l=0.15
X22 VDDA.t58 div120_2_0.div3_3_0.I.t3 div120_2_0.div24.t2 VDDA.t57 sky130_fd_pr__pfet_01v8 ad=0.2 pd=1.8 as=0.1 ps=0.9 w=0.5 l=0.15
X23 vco2_3_0.V2.t1 vco2_3_0.V8.t3 V_OSC.t1 VDDA.t2 sky130_fd_pr__pfet_01v8 ad=0.4 pd=2.8 as=0.4 ps=2.8 w=1 l=0.2
X24 GNDA.t1 div120_2_0.div5_2_0.Q2_b.t5 div120_2_0.div5_2_0.M.t3 GNDA.t0 sky130_fd_pr__nfet_01v8 ad=0.1 pd=0.9 as=0.1 ps=0.9 w=0.5 l=0.15
X25 div120_2_0.div2_4_2.C.t2 a_3810_770.t3 GNDA.t80 GNDA.t79 sky130_fd_pr__nfet_01v8 ad=0.1 pd=0.9 as=0.1 ps=0.9 w=0.5 l=0.15
X26 VDDA.t85 V_OSC.t2 a_2510_770.t2 VDDA.t84 sky130_fd_pr__pfet_01v8 ad=0.1 pd=0.9 as=0.2 ps=1.8 w=0.5 l=0.15
X27 GNDA.t58 div120_2_0.div24.t3 div120_2_0.div5_2_0.J.t3 GNDA.t57 sky130_fd_pr__nfet_01v8 ad=0.1 pd=0.9 as=0.1 ps=0.9 w=0.5 l=0.15
X28 GNDA.t68 div120_2_0.div3_3_0.CLK.t9 div120_2_0.div3_3_0.C.t1 GNDA.t67 sky130_fd_pr__nfet_01v8 ad=0.1 pd=0.9 as=0.2 ps=1.8 w=0.5 l=0.15
X29 div120_2_0.div2.t0 div120_2_0.div2_4_1.C.t4 GNDA.t82 GNDA.t81 sky130_fd_pr__nfet_01v8 ad=0.2 pd=1.8 as=0.1 ps=0.9 w=0.5 l=0.15
X30 div120_2_0.div2_4_1.C.t0 div120_2_0.div2_4_1.A.t2 VDDA.t24 VDDA.t23 sky130_fd_pr__pfet_01v8 ad=0.2 pd=1.8 as=0.1 ps=0.9 w=0.5 l=0.15
X31 div120_2_0.div4.t0 a_3810_770.t4 VDDA.t32 VDDA.t31 sky130_fd_pr__pfet_01v8 ad=0.2 pd=1.8 as=0.2 ps=1.8 w=0.5 l=0.15
X32 VDDA.t22 vco2_3_0.V1.t1 vco2_3_0.V1.t2 VDDA.t21 sky130_fd_pr__pfet_01v8 ad=0.8 pd=4.8 as=0.8 ps=4.8 w=2 l=1.5
X33 div120_2_0.div2_4_0.A.t1 a_5110_770.t4 div120_2_0.div2_4_0.B.t1 GNDA.t110 sky130_fd_pr__nfet_01v8 ad=0.2 pd=1.8 as=0.1 ps=0.9 w=0.5 l=0.15
X34 div120_2_0.div5_2_0.D.t0 div120_2_0.div5_2_0.B.t2 VDDA.t83 VDDA.t82 sky130_fd_pr__pfet_01v8 ad=0.2 pd=1.8 as=0.1 ps=0.9 w=0.5 l=0.15
X35 div120_2_0.div3_3_0.CLK.t2 div120_2_0.div8.t4 VDDA.t69 VDDA.t68 sky130_fd_pr__pfet_01v8 ad=0.2 pd=1.8 as=0.1 ps=0.9 w=0.5 l=0.15
X36 GNDA.t3 div120_2_0.div5_2_0.Q2_b.t6 div120_2_0.div5_2_0.M.t2 GNDA.t2 sky130_fd_pr__nfet_01v8 ad=0.1 pd=0.9 as=0.2 ps=1.8 w=0.5 l=0.15
X37 GNDA.t52 div120_2_0.div24.t4 div120_2_0.div5_2_0.J.t2 GNDA.t51 sky130_fd_pr__nfet_01v8 ad=0.1 pd=0.9 as=0.2 ps=1.8 w=0.5 l=0.15
X38 VDDA.t12 div120_2_0.div24.t5 div120_2_0.div3_3_0.A.t0 VDDA.t11 sky130_fd_pr__pfet_01v8 ad=0.1 pd=0.9 as=0.2 ps=1.8 w=0.5 l=0.15
X39 div120_2_0.div2_4_1.C.t3 a_2510_770.t4 GNDA.t12 GNDA.t11 sky130_fd_pr__nfet_01v8 ad=0.1 pd=0.9 as=0.1 ps=0.9 w=0.5 l=0.15
X40 vco2_3_0.V7.t0 V_OSC.t3 vco2_3_0.V9.t0 GNDA.t115 sky130_fd_pr__nfet_01v8 ad=0.2 pd=1.8 as=0.2 ps=1.8 w=0.5 l=0.2
X41 div120_2_0.div2_4_1.B.t0 div120_2_0.div2.t2 GNDA.t32 GNDA.t31 sky130_fd_pr__nfet_01v8 ad=0.1 pd=0.9 as=0.1 ps=0.9 w=0.5 l=0.15
X42 GNDA.t47 div120_2_0.div24.t6 div120_2_0.div5_2_0.D.t3 GNDA.t46 sky130_fd_pr__nfet_01v8 ad=0.1 pd=0.9 as=0.1 ps=0.9 w=0.5 l=0.15
X43 vco2_3_0.V4.t1 vco2_3_0.V1.t3 VDDA.t63 VDDA.t62 sky130_fd_pr__pfet_01v8 ad=0.8 pd=4.8 as=0.8 ps=4.8 w=2 l=1.5
X44 div120_2_0.div5_2_0.B.t0 div120_2_0.div24.t7 div120_2_0.div5_2_0.C.t0 GNDA.t104 sky130_fd_pr__nfet_01v8 ad=0.2 pd=1.8 as=0.1 ps=0.9 w=0.5 l=0.15
X45 VDDA.t30 div120_2_0.div2.t3 a_3810_770.t2 VDDA.t29 sky130_fd_pr__pfet_01v8 ad=0.1 pd=0.9 as=0.2 ps=1.8 w=0.5 l=0.15
X46 vco2_3_0.V5.t1 vco2_3_0.V9.t2 vco2_3_0.V8.t0 GNDA.t25 sky130_fd_pr__nfet_01v8 ad=0.2 pd=1.8 as=0.2 ps=1.8 w=0.5 l=0.2
X47 div120_2_0.div2_4_2.C.t3 div120_2_0.div2_4_2.A.t2 VDDA.t67 VDDA.t66 sky130_fd_pr__pfet_01v8 ad=0.2 pd=1.8 as=0.1 ps=0.9 w=0.5 l=0.15
X48 a_2510_770.t0 V_OSC.t4 VDDA.t28 VDDA.t27 sky130_fd_pr__pfet_01v8 ad=0.2 pd=1.8 as=0.1 ps=0.9 w=0.5 l=0.15
X49 div120_2_0.div2_4_2.A.t0 a_3810_770.t5 div120_2_0.div2_4_2.B.t0 GNDA.t24 sky130_fd_pr__nfet_01v8 ad=0.2 pd=1.8 as=0.1 ps=0.9 w=0.5 l=0.15
X50 VDDA.t87 div120_2_0.div3_3_0.D.t2 div120_2_0.div3_3_0.E.t2 VDDA.t86 sky130_fd_pr__pfet_01v8 ad=0.1 pd=0.9 as=0.2 ps=1.8 w=0.5 l=0.15
X51 VDDA.t46 div120_2_0.div2.t4 div120_2_0.div2_4_1.A.t0 VDDA.t45 sky130_fd_pr__pfet_01v8 ad=0.1 pd=0.9 as=0.2 ps=1.8 w=0.5 l=0.15
X52 div120_2_0.div3_3_0.I.t1 div120_2_0.div3_3_0.H.t4 GNDA.t86 GNDA.t85 sky130_fd_pr__nfet_01v8 ad=0.2 pd=1.8 as=0.1 ps=0.9 w=0.5 l=0.15
X53 GNDA.t56 div120_2_0.div24.t8 div120_2_0.div5_2_0.D.t2 GNDA.t55 sky130_fd_pr__nfet_01v8 ad=0.1 pd=0.9 as=0.2 ps=1.8 w=0.5 l=0.15
X54 vco2_3_0.V2.t2 GNDA.t119 VDDA.t75 VDDA.t74 sky130_fd_pr__pfet_01v8 ad=0.4 pd=2.8 as=0.4 ps=2.8 w=1 l=0.15
X55 GNDA.t34 a_5110_770.t5 div120_2_0.div2_4_0.C.t2 GNDA.t33 sky130_fd_pr__nfet_01v8 ad=0.1 pd=0.9 as=0.1 ps=0.9 w=0.5 l=0.15
X56 GNDA.t14 div120_2_0.div2.t5 a_3810_770.t0 GNDA.t13 sky130_fd_pr__nfet_01v8 ad=0.1 pd=0.9 as=0.2 ps=1.8 w=0.5 l=0.15
X57 vco2_3_0.V3.t0 V_CONT.t0 GNDA.t45 GNDA.t44 sky130_fd_pr__nfet_01v8 ad=0.4 pd=2.8 as=0.4 ps=2.8 w=1 l=0.15
X58 VDDA.t1 div120_2_0.div5_2_0.Q2_b.t7 div120_2_0.div5_2_0.A.t2 VDDA.t0 sky130_fd_pr__pfet_01v8 ad=0.1 pd=0.9 as=0.2 ps=1.8 w=0.5 l=0.15
X59 div120_2_0.div3_3_0.D.t0 div120_2_0.div3_3_0.C.t4 GNDA.t117 GNDA.t116 sky130_fd_pr__nfet_01v8 ad=0.2 pd=1.8 as=0.1 ps=0.9 w=0.5 l=0.15
X60 div120_2_0.div3_3_0.H.t0 div120_2_0.div3_3_0.CLK.t10 GNDA.t66 GNDA.t65 sky130_fd_pr__nfet_01v8 ad=0.1 pd=0.9 as=0.1 ps=0.9 w=0.5 l=0.15
X61 vco2_3_0.V6.t0 V_OSC.t5 vco2_3_0.V9.t1 VDDA.t59 sky130_fd_pr__pfet_01v8 ad=0.4 pd=2.8 as=0.4 ps=2.8 w=1 l=0.2
X62 div120_2_0.div3_3_0.G.t0 div120_2_0.div3_3_0.D.t3 div120_2_0.div3_3_0.F.t0 GNDA.t28 sky130_fd_pr__nfet_01v8 ad=0.1 pd=0.9 as=0.1 ps=0.9 w=0.5 l=0.15
X63 VDDA.t89 div120_2_0.div3_3_0.E.t3 div120_2_0.div3_3_0.H.t3 VDDA.t88 sky130_fd_pr__pfet_01v8 ad=0.1 pd=0.9 as=0.2 ps=1.8 w=0.5 l=0.15
X64 div120_2_0.div2_4_0.C.t0 div120_2_0.div2_4_0.A.t2 VDDA.t39 VDDA.t38 sky130_fd_pr__pfet_01v8 ad=0.2 pd=1.8 as=0.1 ps=0.9 w=0.5 l=0.15
X65 V_OUT_120.t1 div120_2_0.div5_2_0.Q2_b.t8 VDDA.t81 VDDA.t80 sky130_fd_pr__pfet_01v8 ad=0.2 pd=1.8 as=0.2 ps=1.8 w=0.5 l=0.15
X66 GNDA.t16 a_5110_770.t6 div120_2_0.div2_4_0.C.t1 GNDA.t15 sky130_fd_pr__nfet_01v8 ad=0.1 pd=0.9 as=0.2 ps=1.8 w=0.5 l=0.15
X67 GNDA.t60 a_3810_770.t6 div120_2_0.div2_4_2.C.t0 GNDA.t59 sky130_fd_pr__nfet_01v8 ad=0.1 pd=0.9 as=0.1 ps=0.9 w=0.5 l=0.15
X68 div120_2_0.div5_2_0.H.t0 div120_2_0.div24.t9 div120_2_0.div5_2_0.G.t0 GNDA.t23 sky130_fd_pr__nfet_01v8 ad=0.1 pd=0.9 as=0.2 ps=1.8 w=0.5 l=0.15
X69 div120_2_0.div5_2_0.Q2_b.t0 div120_2_0.div24.t10 VDDA.t10 VDDA.t9 sky130_fd_pr__pfet_01v8 ad=0.2 pd=1.8 as=0.1 ps=0.9 w=0.5 l=0.15
X70 div120_2_0.div5_2_0.Q2_b.t1 div120_2_0.div5_2_0.J.t4 GNDA.t10 GNDA.t9 sky130_fd_pr__nfet_01v8 ad=0.2 pd=1.8 as=0.1 ps=0.9 w=0.5 l=0.15
X71 GNDA.t40 V_CONT.t1 vco2_3_0.V1.t0 GNDA.t39 sky130_fd_pr__nfet_01v8 ad=0.4 pd=2.8 as=0.4 ps=2.8 w=1 l=0.15
X72 div120_2_0.div3_3_0.C.t0 div120_2_0.div3_3_0.CLK.t11 GNDA.t64 GNDA.t63 sky130_fd_pr__nfet_01v8 ad=0.1 pd=0.9 as=0.1 ps=0.9 w=0.5 l=0.15
X73 GNDA.t88 V_OSC.t6 a_2510_770.t1 GNDA.t87 sky130_fd_pr__nfet_01v8 ad=0.1 pd=0.9 as=0.2 ps=1.8 w=0.5 l=0.15
X74 vco2_3_0.V3.t2 VDDA.t94 GNDA.t48 GNDA.t44 sky130_fd_pr__nfet_01v8 ad=0.2 pd=1.8 as=0.2 ps=1.8 w=0.5 l=0.15
X75 div120_2_0.div3_3_0.B.t0 div120_2_0.div24.t11 GNDA.t22 GNDA.t21 sky130_fd_pr__nfet_01v8 ad=0.1 pd=0.9 as=0.1 ps=0.9 w=0.5 l=0.15
X76 div120_2_0.div8.t0 div120_2_0.div2_4_0.C.t4 GNDA.t36 GNDA.t35 sky130_fd_pr__nfet_01v8 ad=0.2 pd=1.8 as=0.1 ps=0.9 w=0.5 l=0.15
X77 vco2_3_0.V4.t0 vco2_3_0.V9.t3 vco2_3_0.V8.t1 VDDA.t42 sky130_fd_pr__pfet_01v8 ad=0.4 pd=2.8 as=0.4 ps=2.8 w=1 l=0.2
X78 VDDA.t26 V_OUT_120.t2 div120_2_0.div5_2_0.K.t0 VDDA.t25 sky130_fd_pr__pfet_01v8 ad=0.1 pd=0.9 as=0.2 ps=1.8 w=0.5 l=0.15
X79 div120_2_0.div24.t1 div120_2_0.div3_3_0.I.t4 VDDA.t56 VDDA.t55 sky130_fd_pr__pfet_01v8 ad=0.1 pd=0.9 as=0.2 ps=1.8 w=0.5 l=0.15
X80 div120_2_0.div5_2_0.L.t1 V_OUT_120.t3 GNDA.t106 GNDA.t105 sky130_fd_pr__nfet_01v8 ad=0.1 pd=0.9 as=0.2 ps=1.8 w=0.5 l=0.15
X81 div120_2_0.div5_2_0.M.t1 div120_2_0.div5_2_0.Q2_b.t9 GNDA.t103 GNDA.t102 sky130_fd_pr__nfet_01v8 ad=0.1 pd=0.9 as=0.1 ps=0.9 w=0.5 l=0.15
X82 GNDA.t78 a_3810_770.t7 div120_2_0.div2_4_2.C.t1 GNDA.t77 sky130_fd_pr__nfet_01v8 ad=0.1 pd=0.9 as=0.2 ps=1.8 w=0.5 l=0.15
X83 div120_2_0.div5_2_0.A.t1 div120_2_0.div5_2_0.Q2_b.t10 VDDA.t79 VDDA.t78 sky130_fd_pr__pfet_01v8 ad=0.2 pd=1.8 as=0.1 ps=0.9 w=0.5 l=0.15
X84 div120_2_0.div8.t1 a_5110_770.t7 VDDA.t16 VDDA.t15 sky130_fd_pr__pfet_01v8 ad=0.2 pd=1.8 as=0.2 ps=1.8 w=0.5 l=0.15
X85 div120_2_0.div5_2_0.J.t1 div120_2_0.div24.t12 GNDA.t8 GNDA.t7 sky130_fd_pr__nfet_01v8 ad=0.1 pd=0.9 as=0.1 ps=0.9 w=0.5 l=0.15
X86 vco2_3_0.V7.t1 V_CONT.t2 GNDA.t101 GNDA.t100 sky130_fd_pr__nfet_01v8 ad=0.4 pd=2.8 as=0.4 ps=2.8 w=1 l=0.15
X87 div120_2_0.div3_3_0.C.t3 div120_2_0.div3_3_0.A.t2 VDDA.t93 VDDA.t92 sky130_fd_pr__pfet_01v8 ad=0.2 pd=1.8 as=0.1 ps=0.9 w=0.5 l=0.15
X88 GNDA.t92 a_2510_770.t5 div120_2_0.div2_4_1.C.t2 GNDA.t91 sky130_fd_pr__nfet_01v8 ad=0.1 pd=0.9 as=0.1 ps=0.9 w=0.5 l=0.15
X89 GNDA.t90 div120_2_0.div5_2_0.E.t3 div120_2_0.div5_2_0.I.t1 GNDA.t89 sky130_fd_pr__nfet_01v8 ad=0.1 pd=0.9 as=0.1 ps=0.9 w=0.5 l=0.15
X90 div120_2_0.div2_4_1.A.t1 a_2510_770.t6 div120_2_0.div2_4_1.B.t1 GNDA.t99 sky130_fd_pr__nfet_01v8 ad=0.2 pd=1.8 as=0.1 ps=0.9 w=0.5 l=0.15
X91 div120_2_0.div5_2_0.G.t1 V_OUT_120.t4 div120_2_0.div5_2_0.F.t0 VDDA.t33 sky130_fd_pr__pfet_01v8 ad=0.2 pd=1.8 as=0.1 ps=0.9 w=0.5 l=0.15
X92 VDDA.t61 div120_2_0.div5_2_0.Q2_b.t11 div120_2_0.div5_2_0.G.t2 VDDA.t60 sky130_fd_pr__pfet_01v8 ad=0.1 pd=0.9 as=0.2 ps=1.8 w=0.5 l=0.15
X93 vco2_3_0.V5.t0 V_CONT.t3 GNDA.t27 GNDA.t26 sky130_fd_pr__nfet_01v8 ad=0.4 pd=2.8 as=0.4 ps=2.8 w=1 l=0.15
X94 div120_2_0.div5_2_0.E.t0 div120_2_0.div5_2_0.D.t4 GNDA.t50 GNDA.t49 sky130_fd_pr__nfet_01v8 ad=0.2 pd=1.8 as=0.1 ps=0.9 w=0.5 l=0.15
X95 VDDA.t91 div120_2_0.div5_2_0.A.t3 div120_2_0.div5_2_0.B.t1 VDDA.t90 sky130_fd_pr__pfet_01v8 ad=0.1 pd=0.9 as=0.2 ps=1.8 w=0.5 l=0.15
X96 div120_2_0.div24.t0 div120_2_0.div3_3_0.I.t5 GNDA.t62 GNDA.t61 sky130_fd_pr__nfet_01v8 ad=0.2 pd=1.8 as=0.2 ps=1.8 w=0.5 l=0.15
X97 div120_2_0.div2_4_0.B.t0 div120_2_0.div8.t5 GNDA.t109 GNDA.t108 sky130_fd_pr__nfet_01v8 ad=0.1 pd=0.9 as=0.1 ps=0.9 w=0.5 l=0.15
X98 vco2_3_0.V2.t0 vco2_3_0.V1.t4 VDDA.t20 VDDA.t19 sky130_fd_pr__pfet_01v8 ad=0.8 pd=4.8 as=0.8 ps=4.8 w=2 l=1.5
X99 div120_2_0.div5_2_0.E.t1 div120_2_0.div24.t13 VDDA.t65 VDDA.t64 sky130_fd_pr__pfet_01v8 ad=0.2 pd=1.8 as=0.2 ps=1.8 w=0.5 l=0.15
X100 div120_2_0.div3_3_0.E.t1 div120_2_0.div3_3_0.I.t6 VDDA.t54 VDDA.t53 sky130_fd_pr__pfet_01v8 ad=0.2 pd=1.8 as=0.1 ps=0.9 w=0.5 l=0.15
X101 vco2_3_0.V6.t2 GNDA.t120 VDDA.t73 VDDA.t72 sky130_fd_pr__pfet_01v8 ad=0.4 pd=2.8 as=0.4 ps=2.8 w=1 l=0.15
X102 GNDA.t98 a_2510_770.t7 div120_2_0.div2_4_1.C.t1 GNDA.t97 sky130_fd_pr__nfet_01v8 ad=0.1 pd=0.9 as=0.2 ps=1.8 w=0.5 l=0.15
X103 V_OUT_120.t0 div120_2_0.div5_2_0.M.t4 GNDA.t20 GNDA.t19 sky130_fd_pr__nfet_01v8 ad=0.2 pd=1.8 as=0.1 ps=0.9 w=0.5 l=0.15
X104 VDDA.t18 div120_2_0.div4.t4 a_5110_770.t1 VDDA.t17 sky130_fd_pr__pfet_01v8 ad=0.1 pd=0.9 as=0.2 ps=1.8 w=0.5 l=0.15
X105 vco2_3_0.V6.t1 vco2_3_0.V1.t5 VDDA.t44 VDDA.t43 sky130_fd_pr__pfet_01v8 ad=0.8 pd=4.8 as=0.8 ps=4.8 w=2 l=1.5
X106 vco2_3_0.V7.t2 VDDA.t95 GNDA.t111 GNDA.t100 sky130_fd_pr__nfet_01v8 ad=0.2 pd=1.8 as=0.2 ps=1.8 w=0.5 l=0.15
X107 div120_2_0.div5_2_0.D.t1 div120_2_0.div24.t14 GNDA.t96 GNDA.t95 sky130_fd_pr__nfet_01v8 ad=0.1 pd=0.9 as=0.1 ps=0.9 w=0.5 l=0.15
X108 a_3810_770.t1 div120_2_0.div2.t6 VDDA.t8 VDDA.t7 sky130_fd_pr__pfet_01v8 ad=0.2 pd=1.8 as=0.1 ps=0.9 w=0.5 l=0.15
X109 div120_2_0.div5_2_0.C.t1 div120_2_0.div5_2_0.A.t4 GNDA.t114 GNDA.t113 sky130_fd_pr__nfet_01v8 ad=0.1 pd=0.9 as=0.2 ps=1.8 w=0.5 l=0.15
X110 div120_2_0.div3_3_0.D.t1 div120_2_0.div3_3_0.CLK.t12 VDDA.t48 VDDA.t47 sky130_fd_pr__pfet_01v8 ad=0.2 pd=1.8 as=0.2 ps=1.8 w=0.5 l=0.15
X111 VDDA.t4 div120_2_0.div4.t5 div120_2_0.div2_4_2.A.t1 VDDA.t3 sky130_fd_pr__pfet_01v8 ad=0.1 pd=0.9 as=0.2 ps=1.8 w=0.5 l=0.15
X112 vco2_3_0.V5.t2 VDDA.t96 GNDA.t112 GNDA.t26 sky130_fd_pr__nfet_01v8 ad=0.2 pd=1.8 as=0.2 ps=1.8 w=0.5 l=0.15
X113 div120_2_0.div2_4_2.B.t1 div120_2_0.div4.t6 GNDA.t18 GNDA.t17 sky130_fd_pr__nfet_01v8 ad=0.1 pd=0.9 as=0.1 ps=0.9 w=0.5 l=0.15
X114 GNDA.t6 div120_2_0.div8.t6 div120_2_0.div3_3_0.CLK.t0 GNDA.t5 sky130_fd_pr__nfet_01v8 ad=0.1 pd=0.9 as=0.2 ps=1.8 w=0.5 l=0.15
X115 div120_2_0.div5_2_0.I.t0 V_OUT_120.t5 GNDA.t30 GNDA.t29 sky130_fd_pr__nfet_01v8 ad=0.2 pd=1.8 as=0.1 ps=0.9 w=0.5 l=0.15
R0 GNDA.n274 GNDA.t26 2223.91
R1 GNDA.n273 GNDA.t44 2223.91
R2 GNDA.t100 GNDA.t87 2124.71
R3 GNDA.t42 GNDA.t61 1552.94
R4 GNDA.t49 GNDA.t23 1509.8
R5 GNDA.t9 GNDA.t105 1466.67
R6 GNDA.t29 GNDA.t51 1423.53
R7 GNDA.t69 GNDA.t116 1423.53
R8 GNDA.t67 GNDA.t70 1423.53
R9 GNDA.t15 GNDA.t110 1423.53
R10 GNDA.t77 GNDA.t24 1423.53
R11 GNDA.t99 GNDA.t97 1423.53
R12 GNDA.n55 GNDA.t42 1358.82
R13 GNDA.n211 GNDA.n22 1204.13
R14 GNDA.n53 GNDA.n31 1204.13
R15 GNDA.n260 GNDA.n259 1204.13
R16 GNDA.n54 GNDA.n43 1182.8
R17 GNDA.n56 GNDA.n55 1182.8
R18 GNDA.n268 GNDA.n267 1173.78
R19 GNDA.n273 GNDA.n272 1173.78
R20 GNDA.n275 GNDA.n274 1173.78
R21 GNDA.t41 GNDA.t2 1078.43
R22 GNDA.t104 GNDA.t55 1078.43
R23 GNDA.t61 GNDA.t85 1078.43
R24 GNDA.t5 GNDA.n53 970.588
R25 GNDA.t37 GNDA.n22 970.588
R26 GNDA.n260 GNDA.t13 970.588
R27 GNDA.t71 GNDA.n54 841.178
R28 GNDA.n53 GNDA.t35 841.178
R29 GNDA.n22 GNDA.t83 841.178
R30 GNDA.t81 GNDA.n260 841.178
R31 GNDA.n267 GNDA.t119 728.524
R32 GNDA.n272 GNDA.t118 728.524
R33 GNDA.n275 GNDA.t120 728.524
R34 GNDA.n265 GNDA.n262 686.717
R35 GNDA.n270 GNDA.n261 686.717
R36 GNDA.n278 GNDA.n277 686.717
R37 GNDA.n279 GNDA.n278 686.717
R38 GNDA.n261 GNDA.n4 686.717
R39 GNDA.n263 GNDA.n262 686.717
R40 GNDA.n268 GNDA.t39 645.653
R41 GNDA.n274 GNDA.t115 621.74
R42 GNDA.t25 GNDA.n273 621.74
R43 GNDA.t4 GNDA.n268 621.74
R44 GNDA.n55 GNDA.t113 582.354
R45 GNDA.n54 GNDA.t93 582.354
R46 GNDA.t0 GNDA.t19 474.51
R47 GNDA.t102 GNDA.t0 474.51
R48 GNDA.t2 GNDA.t102 474.51
R49 GNDA.t105 GNDA.t41 474.51
R50 GNDA.t57 GNDA.t9 474.51
R51 GNDA.t7 GNDA.t57 474.51
R52 GNDA.t51 GNDA.t7 474.51
R53 GNDA.t89 GNDA.t29 474.51
R54 GNDA.t107 GNDA.t89 474.51
R55 GNDA.t23 GNDA.t107 474.51
R56 GNDA.t46 GNDA.t49 474.51
R57 GNDA.t95 GNDA.t46 474.51
R58 GNDA.t55 GNDA.t95 474.51
R59 GNDA.t113 GNDA.t104 474.51
R60 GNDA.t85 GNDA.t75 474.51
R61 GNDA.t75 GNDA.t65 474.51
R62 GNDA.t65 GNDA.t71 474.51
R63 GNDA.t93 GNDA.t28 474.51
R64 GNDA.t28 GNDA.t69 474.51
R65 GNDA.t116 GNDA.t73 474.51
R66 GNDA.t73 GNDA.t63 474.51
R67 GNDA.t63 GNDA.t67 474.51
R68 GNDA.t70 GNDA.t21 474.51
R69 GNDA.t21 GNDA.t5 474.51
R70 GNDA.t35 GNDA.t33 474.51
R71 GNDA.t33 GNDA.t53 474.51
R72 GNDA.t53 GNDA.t15 474.51
R73 GNDA.t110 GNDA.t108 474.51
R74 GNDA.t108 GNDA.t37 474.51
R75 GNDA.t83 GNDA.t59 474.51
R76 GNDA.t59 GNDA.t79 474.51
R77 GNDA.t79 GNDA.t77 474.51
R78 GNDA.t24 GNDA.t17 474.51
R79 GNDA.t17 GNDA.t13 474.51
R80 GNDA.t91 GNDA.t81 474.51
R81 GNDA.t11 GNDA.t91 474.51
R82 GNDA.t97 GNDA.t11 474.51
R83 GNDA.t31 GNDA.t99 474.51
R84 GNDA.t87 GNDA.t31 474.51
R85 GNDA.n84 GNDA.t106 295.933
R86 GNDA.n134 GNDA.t43 295.933
R87 GNDA.n141 GNDA.t62 295.933
R88 GNDA.n265 GNDA.t40 260
R89 GNDA.n263 GNDA.t40 260
R90 GNDA.n76 GNDA.n75 256.207
R91 GNDA.n77 GNDA.n74 247.934
R92 GNDA.n91 GNDA.n69 247.934
R93 GNDA.n94 GNDA.n93 247.934
R94 GNDA.n65 GNDA.n64 247.934
R95 GNDA.n113 GNDA.n112 247.934
R96 GNDA.n119 GNDA.n59 247.934
R97 GNDA.n147 GNDA.n46 247.934
R98 GNDA.n150 GNDA.n149 247.934
R99 GNDA.n169 GNDA.n38 247.934
R100 GNDA.n172 GNDA.n171 247.934
R101 GNDA.n184 GNDA.n33 246.714
R102 GNDA.n278 GNDA.n274 241.643
R103 GNDA.n273 GNDA.n261 241.643
R104 GNDA.n268 GNDA.n262 241.643
R105 GNDA.n43 GNDA.t94 233
R106 GNDA.n56 GNDA.t114 233
R107 GNDA.n266 GNDA.t48 233
R108 GNDA.n271 GNDA.t112 233
R109 GNDA.n276 GNDA.t111 233
R110 GNDA.n29 GNDA.n28 219.133
R111 GNDA.n196 GNDA.n27 219.133
R112 GNDA.n204 GNDA.n203 219.133
R113 GNDA.n217 GNDA.n19 219.133
R114 GNDA.n17 GNDA.n16 219.133
R115 GNDA.n229 GNDA.n13 219.133
R116 GNDA.n253 GNDA.n235 219.133
R117 GNDA.n237 GNDA.n236 219.133
R118 GNDA.n241 GNDA.n240 219.133
R119 GNDA.n264 GNDA.t45 128.562
R120 GNDA.n269 GNDA.t27 127.754
R121 GNDA.n9 GNDA.t101 127.754
R122 GNDA.n157 GNDA.n43 54.4005
R123 GNDA.n127 GNDA.n56 54.4005
R124 GNDA.n75 GNDA.t20 48.0005
R125 GNDA.n75 GNDA.t1 48.0005
R126 GNDA.n74 GNDA.t103 48.0005
R127 GNDA.n74 GNDA.t3 48.0005
R128 GNDA.n69 GNDA.t10 48.0005
R129 GNDA.n69 GNDA.t58 48.0005
R130 GNDA.n93 GNDA.t8 48.0005
R131 GNDA.n93 GNDA.t52 48.0005
R132 GNDA.n64 GNDA.t30 48.0005
R133 GNDA.n64 GNDA.t90 48.0005
R134 GNDA.n112 GNDA.t50 48.0005
R135 GNDA.n112 GNDA.t47 48.0005
R136 GNDA.n59 GNDA.t96 48.0005
R137 GNDA.n59 GNDA.t56 48.0005
R138 GNDA.n46 GNDA.t86 48.0005
R139 GNDA.n46 GNDA.t76 48.0005
R140 GNDA.n149 GNDA.t66 48.0005
R141 GNDA.n149 GNDA.t72 48.0005
R142 GNDA.n38 GNDA.t117 48.0005
R143 GNDA.n38 GNDA.t74 48.0005
R144 GNDA.n171 GNDA.t64 48.0005
R145 GNDA.n171 GNDA.t68 48.0005
R146 GNDA.n33 GNDA.t22 48.0005
R147 GNDA.n33 GNDA.t6 48.0005
R148 GNDA.n28 GNDA.t36 48.0005
R149 GNDA.n28 GNDA.t34 48.0005
R150 GNDA.n27 GNDA.t54 48.0005
R151 GNDA.n27 GNDA.t16 48.0005
R152 GNDA.n203 GNDA.t109 48.0005
R153 GNDA.n203 GNDA.t38 48.0005
R154 GNDA.n19 GNDA.t84 48.0005
R155 GNDA.n19 GNDA.t60 48.0005
R156 GNDA.n16 GNDA.t80 48.0005
R157 GNDA.n16 GNDA.t78 48.0005
R158 GNDA.n13 GNDA.t18 48.0005
R159 GNDA.n13 GNDA.t14 48.0005
R160 GNDA.n235 GNDA.t82 48.0005
R161 GNDA.n235 GNDA.t92 48.0005
R162 GNDA.n236 GNDA.t12 48.0005
R163 GNDA.n236 GNDA.t98 48.0005
R164 GNDA.n240 GNDA.t32 48.0005
R165 GNDA.n240 GNDA.t88 48.0005
R166 GNDA.n271 GNDA.n270 35.6576
R167 GNDA.n290 GNDA.n4 35.6576
R168 GNDA.n277 GNDA.n276 35.6576
R169 GNDA.n280 GNDA.n279 35.6576
R170 GNDA.n266 GNDA.n265 34.3278
R171 GNDA.n263 GNDA.n0 34.3278
R172 GNDA.n292 GNDA.n291 32.0005
R173 GNDA.n292 GNDA.n2 32.0005
R174 GNDA.n296 GNDA.n2 32.0005
R175 GNDA.n297 GNDA.n296 32.0005
R176 GNDA.n298 GNDA.n297 32.0005
R177 GNDA.n284 GNDA.n7 32.0005
R178 GNDA.n285 GNDA.n284 32.0005
R179 GNDA.n286 GNDA.n285 32.0005
R180 GNDA.n286 GNDA.n5 32.0005
R181 GNDA.n290 GNDA.n5 32.0005
R182 GNDA.n79 GNDA.n78 32.0005
R183 GNDA.n79 GNDA.n72 32.0005
R184 GNDA.n83 GNDA.n72 32.0005
R185 GNDA.n86 GNDA.n85 32.0005
R186 GNDA.n86 GNDA.n70 32.0005
R187 GNDA.n90 GNDA.n70 32.0005
R188 GNDA.n95 GNDA.n92 32.0005
R189 GNDA.n99 GNDA.n67 32.0005
R190 GNDA.n100 GNDA.n99 32.0005
R191 GNDA.n101 GNDA.n100 32.0005
R192 GNDA.n105 GNDA.n104 32.0005
R193 GNDA.n106 GNDA.n105 32.0005
R194 GNDA.n106 GNDA.n62 32.0005
R195 GNDA.n110 GNDA.n62 32.0005
R196 GNDA.n111 GNDA.n110 32.0005
R197 GNDA.n114 GNDA.n111 32.0005
R198 GNDA.n118 GNDA.n60 32.0005
R199 GNDA.n121 GNDA.n120 32.0005
R200 GNDA.n121 GNDA.n57 32.0005
R201 GNDA.n125 GNDA.n57 32.0005
R202 GNDA.n126 GNDA.n125 32.0005
R203 GNDA.n128 GNDA.n51 32.0005
R204 GNDA.n132 GNDA.n51 32.0005
R205 GNDA.n133 GNDA.n132 32.0005
R206 GNDA.n135 GNDA.n133 32.0005
R207 GNDA.n139 GNDA.n49 32.0005
R208 GNDA.n140 GNDA.n139 32.0005
R209 GNDA.n142 GNDA.n47 32.0005
R210 GNDA.n146 GNDA.n47 32.0005
R211 GNDA.n151 GNDA.n148 32.0005
R212 GNDA.n155 GNDA.n44 32.0005
R213 GNDA.n156 GNDA.n155 32.0005
R214 GNDA.n158 GNDA.n41 32.0005
R215 GNDA.n162 GNDA.n41 32.0005
R216 GNDA.n163 GNDA.n162 32.0005
R217 GNDA.n164 GNDA.n163 32.0005
R218 GNDA.n164 GNDA.n39 32.0005
R219 GNDA.n168 GNDA.n39 32.0005
R220 GNDA.n173 GNDA.n170 32.0005
R221 GNDA.n177 GNDA.n36 32.0005
R222 GNDA.n178 GNDA.n177 32.0005
R223 GNDA.n179 GNDA.n178 32.0005
R224 GNDA.n179 GNDA.n34 32.0005
R225 GNDA.n183 GNDA.n34 32.0005
R226 GNDA.n186 GNDA.n185 32.0005
R227 GNDA.n190 GNDA.n189 32.0005
R228 GNDA.n191 GNDA.n190 32.0005
R229 GNDA.n195 GNDA.n194 32.0005
R230 GNDA.n197 GNDA.n25 32.0005
R231 GNDA.n201 GNDA.n25 32.0005
R232 GNDA.n202 GNDA.n201 32.0005
R233 GNDA.n205 GNDA.n202 32.0005
R234 GNDA.n209 GNDA.n23 32.0005
R235 GNDA.n210 GNDA.n209 32.0005
R236 GNDA.n212 GNDA.n20 32.0005
R237 GNDA.n216 GNDA.n20 32.0005
R238 GNDA.n219 GNDA.n218 32.0005
R239 GNDA.n223 GNDA.n222 32.0005
R240 GNDA.n224 GNDA.n223 32.0005
R241 GNDA.n224 GNDA.n14 32.0005
R242 GNDA.n228 GNDA.n14 32.0005
R243 GNDA.n231 GNDA.n230 32.0005
R244 GNDA.n231 GNDA.n10 32.0005
R245 GNDA.n258 GNDA.n11 32.0005
R246 GNDA.n254 GNDA.n11 32.0005
R247 GNDA.n252 GNDA.n251 32.0005
R248 GNDA.n248 GNDA.n247 32.0005
R249 GNDA.n247 GNDA.n246 32.0005
R250 GNDA.n246 GNDA.n239 32.0005
R251 GNDA.n242 GNDA.n239 32.0005
R252 GNDA.n78 GNDA.n77 28.8005
R253 GNDA.n134 GNDA.n49 28.8005
R254 GNDA.n148 GNDA.n147 28.8005
R255 GNDA.n185 GNDA.n184 28.8005
R256 GNDA.n205 GNDA.n204 28.8005
R257 GNDA.n229 GNDA.n228 28.8005
R258 GNDA.n242 GNDA.n241 28.8005
R259 GNDA.n298 GNDA.n0 25.6005
R260 GNDA.n84 GNDA.n83 25.6005
R261 GNDA.n92 GNDA.n91 25.6005
R262 GNDA.n101 GNDA.n65 25.6005
R263 GNDA.n119 GNDA.n118 25.6005
R264 GNDA.n170 GNDA.n169 25.6005
R265 GNDA.n194 GNDA.n29 25.6005
R266 GNDA.n218 GNDA.n217 25.6005
R267 GNDA.n253 GNDA.n252 25.6005
R268 GNDA.t115 GNDA.t100 23.9135
R269 GNDA.t26 GNDA.t25 23.9135
R270 GNDA.t44 GNDA.t4 23.9135
R271 GNDA.n281 GNDA.n8 23.6001
R272 GNDA.n150 GNDA.n44 22.4005
R273 GNDA.n186 GNDA.n31 22.4005
R274 GNDA.n211 GNDA.n210 22.4005
R275 GNDA.n259 GNDA.n10 22.4005
R276 GNDA.n94 GNDA.n67 19.2005
R277 GNDA.n114 GNDA.n113 19.2005
R278 GNDA.n141 GNDA.n140 19.2005
R279 GNDA.n157 GNDA.n156 19.2005
R280 GNDA.n172 GNDA.n36 19.2005
R281 GNDA.n197 GNDA.n196 19.2005
R282 GNDA.n222 GNDA.n17 19.2005
R283 GNDA.n248 GNDA.n237 19.2005
R284 GNDA.n127 GNDA.n126 16.0005
R285 GNDA.n128 GNDA.n127 16.0005
R286 GNDA.n291 GNDA.n290 12.8005
R287 GNDA.n280 GNDA.n7 12.8005
R288 GNDA.n95 GNDA.n94 12.8005
R289 GNDA.n113 GNDA.n60 12.8005
R290 GNDA.n142 GNDA.n141 12.8005
R291 GNDA.n158 GNDA.n157 12.8005
R292 GNDA.n173 GNDA.n172 12.8005
R293 GNDA.n196 GNDA.n195 12.8005
R294 GNDA.n219 GNDA.n17 12.8005
R295 GNDA.n251 GNDA.n237 12.8005
R296 GNDA.n241 GNDA.n8 10.7016
R297 GNDA.n77 GNDA.n76 10.4505
R298 GNDA.n151 GNDA.n150 9.6005
R299 GNDA.n189 GNDA.n31 9.6005
R300 GNDA.n212 GNDA.n211 9.6005
R301 GNDA.n259 GNDA.n258 9.6005
R302 GNDA.n243 GNDA.n242 9.3005
R303 GNDA.n244 GNDA.n239 9.3005
R304 GNDA.n246 GNDA.n245 9.3005
R305 GNDA.n247 GNDA.n238 9.3005
R306 GNDA.n249 GNDA.n248 9.3005
R307 GNDA.n251 GNDA.n250 9.3005
R308 GNDA.n252 GNDA.n234 9.3005
R309 GNDA.n255 GNDA.n254 9.3005
R310 GNDA.n256 GNDA.n11 9.3005
R311 GNDA.n258 GNDA.n257 9.3005
R312 GNDA.n233 GNDA.n10 9.3005
R313 GNDA.n232 GNDA.n231 9.3005
R314 GNDA.n230 GNDA.n12 9.3005
R315 GNDA.n228 GNDA.n227 9.3005
R316 GNDA.n226 GNDA.n14 9.3005
R317 GNDA.n225 GNDA.n224 9.3005
R318 GNDA.n223 GNDA.n15 9.3005
R319 GNDA.n222 GNDA.n221 9.3005
R320 GNDA.n220 GNDA.n219 9.3005
R321 GNDA.n218 GNDA.n18 9.3005
R322 GNDA.n216 GNDA.n215 9.3005
R323 GNDA.n214 GNDA.n20 9.3005
R324 GNDA.n213 GNDA.n212 9.3005
R325 GNDA.n210 GNDA.n21 9.3005
R326 GNDA.n209 GNDA.n208 9.3005
R327 GNDA.n207 GNDA.n23 9.3005
R328 GNDA.n206 GNDA.n205 9.3005
R329 GNDA.n202 GNDA.n24 9.3005
R330 GNDA.n201 GNDA.n200 9.3005
R331 GNDA.n199 GNDA.n25 9.3005
R332 GNDA.n198 GNDA.n197 9.3005
R333 GNDA.n195 GNDA.n26 9.3005
R334 GNDA.n194 GNDA.n193 9.3005
R335 GNDA.n192 GNDA.n191 9.3005
R336 GNDA.n190 GNDA.n30 9.3005
R337 GNDA.n189 GNDA.n188 9.3005
R338 GNDA.n187 GNDA.n186 9.3005
R339 GNDA.n185 GNDA.n32 9.3005
R340 GNDA.n78 GNDA.n73 9.3005
R341 GNDA.n80 GNDA.n79 9.3005
R342 GNDA.n81 GNDA.n72 9.3005
R343 GNDA.n83 GNDA.n82 9.3005
R344 GNDA.n85 GNDA.n71 9.3005
R345 GNDA.n87 GNDA.n86 9.3005
R346 GNDA.n88 GNDA.n70 9.3005
R347 GNDA.n90 GNDA.n89 9.3005
R348 GNDA.n92 GNDA.n68 9.3005
R349 GNDA.n96 GNDA.n95 9.3005
R350 GNDA.n97 GNDA.n67 9.3005
R351 GNDA.n99 GNDA.n98 9.3005
R352 GNDA.n100 GNDA.n66 9.3005
R353 GNDA.n102 GNDA.n101 9.3005
R354 GNDA.n104 GNDA.n103 9.3005
R355 GNDA.n105 GNDA.n63 9.3005
R356 GNDA.n107 GNDA.n106 9.3005
R357 GNDA.n108 GNDA.n62 9.3005
R358 GNDA.n110 GNDA.n109 9.3005
R359 GNDA.n111 GNDA.n61 9.3005
R360 GNDA.n115 GNDA.n114 9.3005
R361 GNDA.n116 GNDA.n60 9.3005
R362 GNDA.n118 GNDA.n117 9.3005
R363 GNDA.n120 GNDA.n58 9.3005
R364 GNDA.n122 GNDA.n121 9.3005
R365 GNDA.n123 GNDA.n57 9.3005
R366 GNDA.n125 GNDA.n124 9.3005
R367 GNDA.n126 GNDA.n52 9.3005
R368 GNDA.n129 GNDA.n128 9.3005
R369 GNDA.n130 GNDA.n51 9.3005
R370 GNDA.n132 GNDA.n131 9.3005
R371 GNDA.n133 GNDA.n50 9.3005
R372 GNDA.n136 GNDA.n135 9.3005
R373 GNDA.n137 GNDA.n49 9.3005
R374 GNDA.n139 GNDA.n138 9.3005
R375 GNDA.n140 GNDA.n48 9.3005
R376 GNDA.n143 GNDA.n142 9.3005
R377 GNDA.n144 GNDA.n47 9.3005
R378 GNDA.n146 GNDA.n145 9.3005
R379 GNDA.n148 GNDA.n45 9.3005
R380 GNDA.n152 GNDA.n151 9.3005
R381 GNDA.n153 GNDA.n44 9.3005
R382 GNDA.n155 GNDA.n154 9.3005
R383 GNDA.n156 GNDA.n42 9.3005
R384 GNDA.n159 GNDA.n158 9.3005
R385 GNDA.n160 GNDA.n41 9.3005
R386 GNDA.n162 GNDA.n161 9.3005
R387 GNDA.n163 GNDA.n40 9.3005
R388 GNDA.n165 GNDA.n164 9.3005
R389 GNDA.n166 GNDA.n39 9.3005
R390 GNDA.n168 GNDA.n167 9.3005
R391 GNDA.n170 GNDA.n37 9.3005
R392 GNDA.n174 GNDA.n173 9.3005
R393 GNDA.n175 GNDA.n36 9.3005
R394 GNDA.n177 GNDA.n176 9.3005
R395 GNDA.n178 GNDA.n35 9.3005
R396 GNDA.n180 GNDA.n179 9.3005
R397 GNDA.n181 GNDA.n34 9.3005
R398 GNDA.n183 GNDA.n182 9.3005
R399 GNDA.n282 GNDA.n7 9.3005
R400 GNDA.n284 GNDA.n283 9.3005
R401 GNDA.n285 GNDA.n6 9.3005
R402 GNDA.n287 GNDA.n286 9.3005
R403 GNDA.n288 GNDA.n5 9.3005
R404 GNDA.n290 GNDA.n289 9.3005
R405 GNDA.n291 GNDA.n3 9.3005
R406 GNDA.n293 GNDA.n292 9.3005
R407 GNDA.n294 GNDA.n2 9.3005
R408 GNDA.n296 GNDA.n295 9.3005
R409 GNDA.n297 GNDA.n1 9.3005
R410 GNDA.n299 GNDA.n298 9.3005
R411 GNDA.n281 GNDA.n280 7.49856
R412 GNDA.n300 GNDA.n0 6.86152
R413 GNDA.n85 GNDA.n84 6.4005
R414 GNDA.n91 GNDA.n90 6.4005
R415 GNDA.n104 GNDA.n65 6.4005
R416 GNDA.n120 GNDA.n119 6.4005
R417 GNDA.n169 GNDA.n168 6.4005
R418 GNDA.n191 GNDA.n29 6.4005
R419 GNDA.n217 GNDA.n216 6.4005
R420 GNDA.n254 GNDA.n253 6.4005
R421 GNDA.n269 GNDA.n4 4.49344
R422 GNDA.n270 GNDA.n269 4.49344
R423 GNDA.n279 GNDA.n9 4.49344
R424 GNDA.n277 GNDA.n9 4.49344
R425 GNDA.n267 GNDA.n266 3.8278
R426 GNDA.n272 GNDA.n271 3.8278
R427 GNDA.n276 GNDA.n275 3.8278
R428 GNDA.n135 GNDA.n134 3.2005
R429 GNDA.n147 GNDA.n146 3.2005
R430 GNDA.n184 GNDA.n183 3.2005
R431 GNDA.n204 GNDA.n23 3.2005
R432 GNDA.n230 GNDA.n229 3.2005
R433 GNDA.n264 GNDA.n263 2.8779
R434 GNDA.n265 GNDA.n264 2.8779
R435 GNDA GNDA.n300 1.23328
R436 GNDA.n76 GNDA.n73 0.442364
R437 GNDA.n300 GNDA.n299 0.206966
R438 GNDA.n282 GNDA.n281 0.193856
R439 GNDA.n243 GNDA.n8 0.193477
R440 GNDA.n80 GNDA.n73 0.15675
R441 GNDA.n81 GNDA.n80 0.15675
R442 GNDA.n82 GNDA.n81 0.15675
R443 GNDA.n82 GNDA.n71 0.15675
R444 GNDA.n87 GNDA.n71 0.15675
R445 GNDA.n88 GNDA.n87 0.15675
R446 GNDA.n89 GNDA.n88 0.15675
R447 GNDA.n89 GNDA.n68 0.15675
R448 GNDA.n96 GNDA.n68 0.15675
R449 GNDA.n97 GNDA.n96 0.15675
R450 GNDA.n98 GNDA.n97 0.15675
R451 GNDA.n98 GNDA.n66 0.15675
R452 GNDA.n102 GNDA.n66 0.15675
R453 GNDA.n103 GNDA.n102 0.15675
R454 GNDA.n103 GNDA.n63 0.15675
R455 GNDA.n107 GNDA.n63 0.15675
R456 GNDA.n108 GNDA.n107 0.15675
R457 GNDA.n109 GNDA.n108 0.15675
R458 GNDA.n109 GNDA.n61 0.15675
R459 GNDA.n115 GNDA.n61 0.15675
R460 GNDA.n116 GNDA.n115 0.15675
R461 GNDA.n117 GNDA.n116 0.15675
R462 GNDA.n117 GNDA.n58 0.15675
R463 GNDA.n122 GNDA.n58 0.15675
R464 GNDA.n123 GNDA.n122 0.15675
R465 GNDA.n124 GNDA.n123 0.15675
R466 GNDA.n124 GNDA.n52 0.15675
R467 GNDA.n129 GNDA.n52 0.15675