* PEX produced on Mon Feb  3 03:22:35 PM CET 2025 using /foss/tools/osic-multitool/iic-pex.sh with m=3 and s=1
* NGSPICE file created from charge_pump_full_magic.ext - technology: sky130A

.subckt charge_pump_full_magic VDDA V_OUT GNDA UP_PFD DOWN_PFD I_IN
X0 GNDA.t51 DOWN_PFD.t0 a_1870_3900.t2 GNDA.t50 sky130_fd_pr__nfet_01v8 ad=0.5 pd=3 as=0.5 ps=3 w=1 l=0.15
X1 GNDA.t41 I_IN.t10 a_0_4990.t11 GNDA.t40 sky130_fd_pr__nfet_01v8 ad=0.25 pd=1.5 as=0.25 ps=1.5 w=1 l=0.6
X2 VDDA.t44 a_1710_3900.t3 V_OUT.t10 VDDA.t43 sky130_fd_pr__pfet_01v8 ad=0.25 pd=1.5 as=0.25 ps=1.5 w=1 l=0.6
X3 charge_pump_full_5_0.charge_pump_cell_0.OPAMP_out.t6 charge_pump_full_5_0.opamp_cell_0.p_right.t5 GNDA.t9 GNDA.t1 sky130_fd_pr__nfet_01v8 ad=0.125 pd=1 as=0.125 ps=1 w=0.5 l=0.15
X4 a_2870_3900.t3 a_2580_3900.t1 sky130_fd_pr__cap_mim_m3_1 l=2.6 w=2.6
X5 a_1710_3900.t4 a_1420_3900.t0 sky130_fd_pr__cap_mim_m3_1 l=6 w=4.2
X6 charge_pump_full_5_0.opamp_cell_0.v_common_p.t3 charge_pump_full_5_0.opamp_cell_0.p_bias.t9 VDDA.t11 VDDA.t10 sky130_fd_pr__pfet_01v8 ad=0.625 pd=3 as=0.625 ps=3 w=2.5 l=0.5
X7 a_1130_3900.t0 a_840_3900.t2 GNDA.t23 GNDA.t22 sky130_fd_pr__nfet_01v8 ad=0.5 pd=3 as=0.5 ps=3 w=1 l=0.15
X8 a_2870_3900.t2 a_2580_3900.t3 I_IN.t1 GNDA.t47 sky130_fd_pr__nfet_01v8 ad=0.5 pd=3 as=0.5 ps=3 w=1 l=0.15
X9 V_OUT.t8 a_1710_3900.t5 VDDA.t42 VDDA.t41 sky130_fd_pr__pfet_01v8 ad=0.25 pd=1.5 as=0.25 ps=1.5 w=1 l=0.6
X10 V_OUT.t4 a_1710_3900.t6 VDDA.t40 VDDA.t39 sky130_fd_pr__pfet_01v8 ad=0.25 pd=1.5 as=0.25 ps=1.5 w=1 l=0.6
X11 a_0_4990.t10 I_IN.t11 GNDA.t39 GNDA.t38 sky130_fd_pr__nfet_01v8 ad=0.25 pd=1.5 as=0.25 ps=1.5 w=1 l=0.6
X12 charge_pump_full_5_0.opamp_cell_0.v_common_p.t5 a_0_4990.t12 charge_pump_full_5_0.opamp_cell_0.p_right.t2 VDDA.t80 sky130_fd_pr__pfet_01v8 ad=0.5 pd=3 as=0.25 ps=1.5 w=1 l=0.15
X13 V_OUT.t11 a_6932_6421.t0 GNDA.t26 sky130_fd_pr__res_xhigh_po_0p35 l=7.52
X14 VDDA.t38 a_1710_3900.t7 V_OUT.t9 VDDA.t37 sky130_fd_pr__pfet_01v8 ad=0.25 pd=1.5 as=0.25 ps=1.5 w=1 l=0.6
X15 charge_pump_full_5_0.opamp_cell_0.n_left.t3 charge_pump_full_5_0.opamp_cell_0.n_left.t2 VDDA.t21 VDDA.t20 sky130_fd_pr__pfet_01v8 ad=0.5 pd=3 as=0.25 ps=1.5 w=1 l=0.15
X16 a_1710_3900.t0 a_1420_3900.t3 charge_pump_full_5_0.charge_pump_cell_0.OPAMP_out.t1 VDDA.t26 sky130_fd_pr__pfet_01v8 ad=1 pd=5 as=1 ps=5 w=2 l=0.15
X17 charge_pump_full_5_0.opamp_cell_0.p_left.t3 charge_pump_full_5_0.opamp_cell_0.p_left.t2 GNDA.t2 GNDA.t1 sky130_fd_pr__nfet_01v8 ad=0.25 pd=2 as=0.125 ps=1 w=0.5 l=0.15
X18 charge_pump_full_5_0.opamp_cell_0.n_right.t4 a_8046_2450.t1 GNDA.t55 sky130_fd_pr__res_xhigh_po_0p35 l=1.14
X19 a_0_4990.t3 charge_pump_full_5_0.charge_pump_cell_0.OPAMP_out.t10 VDDA.t7 VDDA.t6 sky130_fd_pr__pfet_01v8 ad=0.25 pd=1.5 as=0.25 ps=1.5 w=1 l=0.6
X20 charge_pump_full_5_0.opamp_cell_0.v_common_n.t3 a_0_4990.t13 charge_pump_full_5_0.opamp_cell_0.n_right.t3 GNDA.t1 sky130_fd_pr__nfet_01v8 ad=0.25 pd=2 as=0.125 ps=1 w=0.5 l=0.15
X21 V_OUT.t5 a_1710_3900.t8 VDDA.t36 VDDA.t35 sky130_fd_pr__pfet_01v8 ad=0.25 pd=1.5 as=0.25 ps=1.5 w=1 l=0.6
X22 a_840_3900.t1 UP_PFD.t0 VDDA.t73 VDDA.t72 sky130_fd_pr__pfet_01v8 ad=1 pd=5 as=1 ps=5 w=2 l=0.15
X23 a_2580_3900.t2 a_2290_3900.t2 VDDA.t61 VDDA.t60 sky130_fd_pr__pfet_01v8 ad=1 pd=5 as=1 ps=5 w=2 l=0.15
X24 charge_pump_full_5_0.charge_pump_cell_0.OPAMP_out.t11 a_5120_2450.t1 sky130_fd_pr__cap_mim_m3_1 l=10 w=10
X25 VDDA.t19 charge_pump_full_5_0.opamp_cell_0.n_left.t6 charge_pump_full_5_0.opamp_cell_0.n_right.t1 VDDA.t18 sky130_fd_pr__pfet_01v8 ad=0.25 pd=1.5 as=0.25 ps=1.5 w=1 l=0.15
X26 charge_pump_full_5_0.opamp_cell_0.n_bias.t3 charge_pump_full_5_0.opamp_cell_0.n_bias.t2 GNDA.t27 GNDA.t19 sky130_fd_pr__nfet_01v8 ad=1.25 pd=6 as=0.625 ps=3 w=2.5 l=0.5
X27 VDDA.t63 charge_pump_full_5_0.charge_pump_cell_0.OPAMP_out.t12 a_0_4990.t7 VDDA.t62 sky130_fd_pr__pfet_01v8 ad=0.25 pd=1.5 as=0.5 ps=3 w=1 l=0.6
X28 I_IN.t9 I_IN.t8 GNDA.t53 GNDA.t52 sky130_fd_pr__nfet_01v8 ad=0.5 pd=3 as=0.25 ps=1.5 w=1 l=0.6
X29 charge_pump_full_5_0.opamp_cell_0.p_bias.t7 charge_pump_full_5_0.opamp_cell_0.p_bias.t6 VDDA.t65 VDDA.t64 sky130_fd_pr__pfet_01v8 ad=0.625 pd=3 as=0.625 ps=3 w=2.5 l=0.5
X30 charge_pump_full_5_0.charge_pump_cell_0.OPAMP_out.t0 charge_pump_full_5_0.opamp_cell_0.n_right.t5 VDDA.t25 VDDA.t24 sky130_fd_pr__pfet_01v8 ad=0.5 pd=3 as=0.25 ps=1.5 w=1 l=0.15
X31 charge_pump_full_5_0.opamp_cell_0.n_right.t2 a_0_4990.t14 charge_pump_full_5_0.opamp_cell_0.v_common_n.t2 GNDA.t1 sky130_fd_pr__nfet_01v8 ad=0.125 pd=1 as=0.125 ps=1 w=0.5 l=0.15
X32 V_OUT.t12 a_2870_3900.t4 GNDA.t33 GNDA.t32 sky130_fd_pr__nfet_01v8 ad=0.5 pd=3 as=0.25 ps=1.5 w=1 l=0.6
X33 charge_pump_full_5_0.opamp_cell_0.p_bias.t8 charge_pump_full_5_0.opamp_cell_0.n_bias.t4 GNDA.t56 sky130_fd_pr__res_xhigh_po_2p85 l=0.51
X34 VDDA.t34 a_1710_3900.t9 V_OUT.t6 VDDA.t33 sky130_fd_pr__pfet_01v8 ad=0.25 pd=1.5 as=0.5 ps=3 w=1 l=0.6
X35 charge_pump_full_5_0.opamp_cell_0.v_common_p.t2 charge_pump_full_5_0.opamp_cell_0.p_bias.t10 VDDA.t9 VDDA.t8 sky130_fd_pr__pfet_01v8 ad=0.625 pd=3 as=0.625 ps=3 w=2.5 l=0.5
X36 a_1710_3900.t1 a_1130_3900.t2 charge_pump_full_5_0.charge_pump_cell_0.OPAMP_out.t7 GNDA.t28 sky130_fd_pr__nfet_01v8 ad=0.5 pd=3 as=0.5 ps=3 w=1 l=0.15
X37 GNDA.t20 charge_pump_full_5_0.opamp_cell_0.n_bias.t0 charge_pump_full_5_0.opamp_cell_0.n_bias.t1 GNDA.t19 sky130_fd_pr__nfet_01v8 ad=0.625 pd=3 as=1.25 ps=6 w=2.5 l=0.5
X38 charge_pump_full_5_0.opamp_cell_0.p_bias.t5 charge_pump_full_5_0.opamp_cell_0.p_bias.t4 VDDA.t67 VDDA.t66 sky130_fd_pr__pfet_01v8 ad=1.25 pd=6 as=0.625 ps=3 w=2.5 l=0.5
X39 GNDA.t43 I_IN.t6 I_IN.t7 GNDA.t42 sky130_fd_pr__nfet_01v8 ad=0.25 pd=1.5 as=0.25 ps=1.5 w=1 l=0.6
X40 GNDA.t31 charge_pump_full_5_0.opamp_cell_0.n_bias.t5 charge_pump_full_5_0.opamp_cell_0.v_common_n.t1 GNDA.t19 sky130_fd_pr__nfet_01v8 ad=0.625 pd=3 as=0.625 ps=3 w=2.5 l=0.5
X41 a_840_3900.t0 UP_PFD.t1 GNDA.t15 GNDA.t14 sky130_fd_pr__nfet_01v8 ad=0.5 pd=3 as=0.5 ps=3 w=1 l=0.15
X42 a_2580_3900.t0 a_2290_3900.t3 GNDA.t4 GNDA.t3 sky130_fd_pr__nfet_01v8 ad=0.5 pd=3 as=0.5 ps=3 w=1 l=0.15
X43 charge_pump_full_5_0.charge_pump_cell_0.OPAMP_out.t5 charge_pump_full_5_0.opamp_cell_0.p_right.t6 GNDA.t21 GNDA.t1 sky130_fd_pr__nfet_01v8 ad=0.25 pd=2 as=0.125 ps=1 w=0.5 l=0.15
X44 GNDA.t8 a_2870_3900.t5 V_OUT.t0 GNDA.t7 sky130_fd_pr__nfet_01v8 ad=0.25 pd=1.5 as=0.25 ps=1.5 w=1 l=0.6
X45 VDDA.t57 charge_pump_full_5_0.opamp_cell_0.p_bias.t2 charge_pump_full_5_0.opamp_cell_0.p_bias.t3 VDDA.t56 sky130_fd_pr__pfet_01v8 ad=0.625 pd=3 as=1.25 ps=6 w=2.5 l=0.5
X46 charge_pump_full_5_0.opamp_cell_0.p_right.t3 a_0_4990.t15 charge_pump_full_5_0.opamp_cell_0.v_common_p.t4 VDDA.t79 sky130_fd_pr__pfet_01v8 ad=0.25 pd=1.5 as=0.25 ps=1.5 w=1 l=0.15
X47 I_IN.t5 I_IN.t4 GNDA.t45 GNDA.t44 sky130_fd_pr__nfet_01v8 ad=0.25 pd=1.5 as=0.25 ps=1.5 w=1 l=0.6
X48 VDDA.t5 charge_pump_full_5_0.charge_pump_cell_0.OPAMP_out.t13 a_0_4990.t2 VDDA.t4 sky130_fd_pr__pfet_01v8 ad=0.25 pd=1.5 as=0.25 ps=1.5 w=1 l=0.6
X49 a_0_4990.t1 charge_pump_full_5_0.charge_pump_cell_0.OPAMP_out.t14 VDDA.t3 VDDA.t2 sky130_fd_pr__pfet_01v8 ad=0.5 pd=3 as=0.25 ps=1.5 w=1 l=0.6
X50 VDDA.t15 charge_pump_full_5_0.opamp_cell_0.p_bias.t11 charge_pump_full_5_0.opamp_cell_0.v_common_p.t1 VDDA.t14 sky130_fd_pr__pfet_01v8 ad=0.625 pd=3 as=0.625 ps=3 w=2.5 l=0.5
X51 GNDA.t24 charge_pump_full_5_0.opamp_cell_0.p_left.t6 charge_pump_full_5_0.opamp_cell_0.p_right.t1 GNDA.t1 sky130_fd_pr__nfet_01v8 ad=0.125 pd=1 as=0.125 ps=1 w=0.5 l=0.15
X52 GNDA.t30 I_IN.t2 I_IN.t3 GNDA.t29 sky130_fd_pr__nfet_01v8 ad=0.25 pd=1.5 as=0.5 ps=3 w=1 l=0.6
X53 charge_pump_full_5_0.charge_pump_cell_0.OPAMP_out.t15 a_8046_2450.t0 sky130_fd_pr__cap_mim_m3_1 l=10 w=10
X54 a_0_4990.t0 charge_pump_full_5_0.charge_pump_cell_0.OPAMP_out.t16 VDDA.t1 VDDA.t0 sky130_fd_pr__pfet_01v8 ad=0.25 pd=1.5 as=0.25 ps=1.5 w=1 l=0.6
X55 a_1420_3900.t1 a_1130_3900.t3 VDDA.t48 VDDA.t47 sky130_fd_pr__pfet_01v8 ad=1 pd=5 as=1 ps=5 w=2 l=0.15
X56 V_OUT.t7 a_1710_3900.t10 VDDA.t32 VDDA.t31 sky130_fd_pr__pfet_01v8 ad=0.5 pd=3 as=0.25 ps=1.5 w=1 l=0.6
X57 a_2290_3900.t0 GNDA.t57 a_1870_3900.t3 VDDA.t78 sky130_fd_pr__pfet_01v8 ad=1 pd=5 as=1 ps=5 w=2 l=0.15
X58 charge_pump_full_5_0.opamp_cell_0.v_common_p.t7 V_OUT.t14 charge_pump_full_5_0.opamp_cell_0.p_left.t5 VDDA.t82 sky130_fd_pr__pfet_01v8 ad=0.25 pd=1.5 as=0.25 ps=1.5 w=1 l=0.15
X59 VDDA.t52 charge_pump_full_5_0.charge_pump_cell_0.OPAMP_out.t17 a_0_4990.t6 VDDA.t51 sky130_fd_pr__pfet_01v8 ad=0.25 pd=1.5 as=0.25 ps=1.5 w=1 l=0.6
X60 charge_pump_full_5_0.opamp_cell_0.n_right.t0 charge_pump_full_5_0.opamp_cell_0.n_left.t7 VDDA.t28 VDDA.t27 sky130_fd_pr__pfet_01v8 ad=0.25 pd=1.5 as=0.25 ps=1.5 w=1 l=0.15
X61 GNDA.t58 a_6932_6421.t1 sky130_fd_pr__cap_mim_m3_1 l=60 w=69.8
X62 a_1710_3900.t2 a_1130_3900.t4 VDDA.t59 VDDA.t58 sky130_fd_pr__pfet_01v8 ad=1 pd=5 as=1 ps=5 w=2 l=0.15
X63 VDDA.t71 charge_pump_full_5_0.opamp_cell_0.n_right.t6 charge_pump_full_5_0.charge_pump_cell_0.OPAMP_out.t9 VDDA.t70 sky130_fd_pr__pfet_01v8 ad=0.25 pd=1.5 as=0.5 ps=3 w=1 l=0.15
X64 charge_pump_full_5_0.opamp_cell_0.p_right.t4 charge_pump_full_5_0.opamp_cell_0.p_left.t7 GNDA.t54 GNDA.t1 sky130_fd_pr__nfet_01v8 ad=0.125 pd=1 as=0.125 ps=1 w=0.5 l=0.15
X65 GNDA.t59 V_OUT.t13 sky130_fd_pr__cap_mim_m3_1 l=60 w=13.8
X66 VDDA.t30 a_1710_3900.t11 V_OUT.t3 VDDA.t29 sky130_fd_pr__pfet_01v8 ad=0.25 pd=1.5 as=0.25 ps=1.5 w=1 l=0.6
X67 VDDA.t77 DOWN_PFD.t1 a_1870_3900.t1 VDDA.t76 sky130_fd_pr__pfet_01v8 ad=1 pd=5 as=1 ps=5 w=2 l=0.15
X68 charge_pump_full_5_0.opamp_cell_0.v_common_n.t5 V_OUT.t15 charge_pump_full_5_0.opamp_cell_0.n_left.t4 GNDA.t1 sky130_fd_pr__nfet_01v8 ad=0.125 pd=1 as=0.125 ps=1 w=0.5 l=0.15
X69 a_0_4990.t5 charge_pump_full_5_0.charge_pump_cell_0.OPAMP_out.t18 VDDA.t50 VDDA.t49 sky130_fd_pr__pfet_01v8 ad=0.25 pd=1.5 as=0.25 ps=1.5 w=1 l=0.6
X70 charge_pump_full_5_0.opamp_cell_0.p_left.t4 V_OUT.t16 charge_pump_full_5_0.opamp_cell_0.v_common_p.t6 VDDA.t81 sky130_fd_pr__pfet_01v8 ad=0.25 pd=1.5 as=0.5 ps=3 w=1 l=0.15
X71 VDDA.t69 charge_pump_full_5_0.opamp_cell_0.n_right.t7 charge_pump_full_5_0.charge_pump_cell_0.OPAMP_out.t8 VDDA.t68 sky130_fd_pr__pfet_01v8 ad=0.25 pd=1.5 as=0.25 ps=1.5 w=1 l=0.15
X72 GNDA.t46 charge_pump_full_5_0.opamp_cell_0.p_right.t7 charge_pump_full_5_0.charge_pump_cell_0.OPAMP_out.t4 GNDA.t1 sky130_fd_pr__nfet_01v8 ad=0.125 pd=1 as=0.25 ps=2 w=0.5 l=0.15
X73 a_5120_2450.t0 charge_pump_full_5_0.opamp_cell_0.p_right.t0 GNDA.t6 sky130_fd_pr__res_xhigh_po_0p35 l=0.86
X74 a_1130_3900.t1 a_840_3900.t3 VDDA.t17 VDDA.t16 sky130_fd_pr__pfet_01v8 ad=1 pd=5 as=1 ps=5 w=2 l=0.15
X75 a_2870_3900.t1 a_2290_3900.t4 I_IN.t0 VDDA.t53 sky130_fd_pr__pfet_01v8 ad=1 pd=5 as=1 ps=5 w=2 l=0.15
X76 VDDA.t13 charge_pump_full_5_0.opamp_cell_0.n_left.t0 charge_pump_full_5_0.opamp_cell_0.n_left.t1 VDDA.t12 sky130_fd_pr__pfet_01v8 ad=0.25 pd=1.5 as=0.5 ps=3 w=1 l=0.15
X77 GNDA.t37 I_IN.t12 a_0_4990.t9 GNDA.t36 sky130_fd_pr__nfet_01v8 ad=0.25 pd=1.5 as=0.5 ps=3 w=1 l=0.6
X78 V_OUT.t1 a_2870_3900.t6 GNDA.t11 GNDA.t10 sky130_fd_pr__nfet_01v8 ad=0.25 pd=1.5 as=0.25 ps=1.5 w=1 l=0.6
X79 a_1420_3900.t2 a_1130_3900.t5 GNDA.t49 GNDA.t48 sky130_fd_pr__nfet_01v8 ad=0.5 pd=3 as=0.5 ps=3 w=1 l=0.15
X80 GNDA.t5 charge_pump_full_5_0.opamp_cell_0.p_left.t0 charge_pump_full_5_0.opamp_cell_0.p_left.t1 GNDA.t1 sky130_fd_pr__nfet_01v8 ad=0.125 pd=1 as=0.25 ps=2 w=0.5 l=0.15
X81 GNDA.t18 charge_pump_full_5_0.opamp_cell_0.p_right.t8 charge_pump_full_5_0.charge_pump_cell_0.OPAMP_out.t3 GNDA.t1 sky130_fd_pr__nfet_01v8 ad=0.125 pd=1 as=0.125 ps=1 w=0.5 l=0.15
X82 a_2290_3900.t1 VDDA.t83 a_1870_3900.t0 GNDA.t0 sky130_fd_pr__nfet_01v8 ad=0.5 pd=3 as=0.5 ps=3 w=1 l=0.15
X83 GNDA.t13 a_2870_3900.t7 V_OUT.t2 GNDA.t12 sky130_fd_pr__nfet_01v8 ad=0.25 pd=1.5 as=0.5 ps=3 w=1 l=0.6
X84 VDDA.t46 charge_pump_full_5_0.charge_pump_cell_0.OPAMP_out.t19 a_0_4990.t4 VDDA.t45 sky130_fd_pr__pfet_01v8 ad=0.25 pd=1.5 as=0.25 ps=1.5 w=1 l=0.6
X85 VDDA.t23 charge_pump_full_5_0.opamp_cell_0.p_bias.t0 charge_pump_full_5_0.opamp_cell_0.p_bias.t1 VDDA.t22 sky130_fd_pr__pfet_01v8 ad=0.625 pd=3 as=0.625 ps=3 w=2.5 l=0.5
X86 charge_pump_full_5_0.charge_pump_cell_0.OPAMP_out.t2 charge_pump_full_5_0.opamp_cell_0.n_right.t8 VDDA.t55 VDDA.t54 sky130_fd_pr__pfet_01v8 ad=0.25 pd=1.5 as=0.25 ps=1.5 w=1 l=0.15
X87 charge_pump_full_5_0.opamp_cell_0.n_left.t5 V_OUT.t17 charge_pump_full_5_0.opamp_cell_0.v_common_n.t4 GNDA.t1 sky130_fd_pr__nfet_01v8 ad=0.125 pd=1 as=0.25 ps=2 w=0.5 l=0.15
X88 a_0_4990.t8 I_IN.t13 GNDA.t35 GNDA.t34 sky130_fd_pr__nfet_01v8 ad=0.5 pd=3 as=0.25 ps=1.5 w=1 l=0.6
X89 VDDA.t75 charge_pump_full_5_0.opamp_cell_0.p_bias.t12 charge_pump_full_5_0.opamp_cell_0.v_common_p.t0 VDDA.t74 sky130_fd_pr__pfet_01v8 ad=0.625 pd=3 as=0.625 ps=3 w=2.5 l=0.5
X90 a_2870_3900.t0 a_2290_3900.t5 GNDA.t17 GNDA.t16 sky130_fd_pr__nfet_01v8 ad=0.5 pd=3 as=0.5 ps=3 w=1 l=0.15
X91 charge_pump_full_5_0.opamp_cell_0.v_common_n.t0 charge_pump_full_5_0.opamp_cell_0.n_bias.t6 GNDA.t25 GNDA.t19 sky130_fd_pr__nfet_01v8 ad=0.625 pd=3 as=0.625 ps=3 w=2.5 l=0.5
R0 DOWN_PFD DOWN_PFD.t0 3349.9
R1 DOWN_PFD.t0 DOWN_PFD.t1 899.734
R2 a_1870_3900.n1 a_1870_3900.t2 200.9
R3 a_1870_3900.n0 a_1870_3900.t0 200.9
R4 a_1870_3900.n0 a_1870_3900.t3 184.826
R5 a_1870_3900.t1 a_1870_3900.n1 184.826
R6 a_1870_3900.n1 a_1870_3900.n0 86.4005
R7 GNDA.t29 GNDA.n23 1.12793e+06
R8 GNDA.n23 GNDA.t1 932923
R9 GNDA.t55 GNDA.t26 6212.57
R10 GNDA.n22 GNDA.n21 1170
R11 GNDA.t56 GNDA.t6 1093.33
R12 GNDA.n30 GNDA.t57 980.9
R13 GNDA.t26 GNDA.n3 646.857
R14 GNDA.n3 GNDA 589.701
R15 GNDA.n25 GNDA.n24 589.65
R16 GNDA.n22 GNDA.t19 533.333
R17 GNDA.n23 GNDA.n3 507.404
R18 GNDA.n4 GNDA.t55 374.401
R19 GNDA.t6 GNDA.n4 340
R20 GNDA.n4 GNDA.t32 297.038
R21 GNDA.t16 GNDA.t47 295.37
R22 GNDA.t47 GNDA.t3 295.37
R23 GNDA.t28 GNDA.t48 295.37
R24 GNDA.t32 GNDA.t7 224.075
R25 GNDA.t7 GNDA.t10 224.075
R26 GNDA.t34 GNDA.t40 224.075
R27 GNDA.t44 GNDA.t29 224.075
R28 GNDA.t1 GNDA.n22 213.333
R29 GNDA.n11 GNDA.n9 194.317
R30 GNDA.n13 GNDA.n12 194.3
R31 GNDA.t36 GNDA.t28 188.427
R32 GNDA.t48 GNDA.t52 188.427
R33 GNDA.n8 GNDA.n7 185
R34 GNDA.n6 GNDA.n5 185
R35 GNDA.t12 GNDA.t16 178.242
R36 GNDA.t0 GNDA.t38 178.242
R37 GNDA.t42 GNDA.t14 178.242
R38 GNDA.n24 GNDA.t10 173.149
R39 GNDA.n38 GNDA.t15 127.15
R40 GNDA.n37 GNDA.t23 127.15
R41 GNDA.n34 GNDA.t49 127.15
R42 GNDA.n27 GNDA.t4 127.15
R43 GNDA.n26 GNDA.t17 127.15
R44 GNDA.n30 GNDA.t51 122.501
R45 GNDA.t38 GNDA.t50 117.13
R46 GNDA.t22 GNDA.t42 117.13
R47 GNDA.t50 GNDA.t36 106.945
R48 GNDA.t52 GNDA.t22 106.945
R49 GNDA.n40 GNDA.n39 97.1505
R50 GNDA.n36 GNDA.n35 97.1505
R51 GNDA.n33 GNDA.n32 97.1505
R52 GNDA.n29 GNDA.n28 97.1505
R53 GNDA.n1 GNDA.n0 97.1505
R54 GNDA.n18 GNDA.n17 97.1505
R55 GNDA.n2 GNDA.t58 92.4829
R56 GNDA.n2 GNDA.t59 82.8829
R57 GNDA.n21 GNDA.n8 73.6005
R58 GNDA.n21 GNDA.n6 73.6005
R59 GNDA.n5 GNDA.t2 60.0005
R60 GNDA.n5 GNDA.t24 60.0005
R61 GNDA.n7 GNDA.t54 60.0005
R62 GNDA.n7 GNDA.t5 60.0005
R63 GNDA.n12 GNDA.t9 60.0005
R64 GNDA.n12 GNDA.t46 60.0005
R65 GNDA.n9 GNDA.t21 60.0005
R66 GNDA.n9 GNDA.t18 60.0005
R67 GNDA.n24 GNDA.t12 50.9264
R68 GNDA.t19 GNDA.t56 46.6672
R69 GNDA.t40 GNDA.t0 45.8338
R70 GNDA.t14 GNDA.t44 45.8338
R71 GNDA.n15 GNDA.n14 32.3838
R72 GNDA.n11 GNDA.n10 32.3838
R73 GNDA.n39 GNDA.t45 30.0005
R74 GNDA.n39 GNDA.t30 30.0005
R75 GNDA.n35 GNDA.t53 30.0005
R76 GNDA.n35 GNDA.t43 30.0005
R77 GNDA.n32 GNDA.t39 30.0005
R78 GNDA.n32 GNDA.t37 30.0005
R79 GNDA.n28 GNDA.t35 30.0005
R80 GNDA.n28 GNDA.t41 30.0005
R81 GNDA.n0 GNDA.t11 30.0005
R82 GNDA.n0 GNDA.t13 30.0005
R83 GNDA.n17 GNDA.t33 30.0005
R84 GNDA.n17 GNDA.t8 30.0005
R85 GNDA.t3 GNDA.t34 25.4635
R86 GNDA.n14 GNDA.t25 12.0005
R87 GNDA.n14 GNDA.t20 12.0005
R88 GNDA.n10 GNDA.t27 12.0005
R89 GNDA.n10 GNDA.t31 12.0005
R90 GNDA GNDA.n2 9.3255
R91 GNDA.n16 GNDA.n6 9.3005
R92 GNDA.n21 GNDA.n20 9.3005
R93 GNDA.n19 GNDA.n8 9.3005
R94 GNDA.n31 GNDA.n30 4.6505
R95 GNDA.n19 GNDA.n18 0.285096
R96 GNDA.n34 GNDA.n33 0.114937
R97 GNDA GNDA.n40 0.106134
R98 GNDA.n27 GNDA.n26 0.102613
R99 GNDA.n16 GNDA.n15 0.0828413
R100 GNDA.n18 GNDA.n1 0.0779648
R101 GNDA.n31 GNDA.n29 0.0674014
R102 GNDA.n26 GNDA.n25 0.0515563
R103 GNDA.n38 GNDA.n37 0.0515563
R104 GNDA.n36 GNDA.n34 0.040993
R105 GNDA.n15 GNDA.n13 0.031254
R106 GNDA.n40 GNDA.n38 0.0163451
R107 GNDA.n20 GNDA.n16 0.0133968
R108 GNDA.n20 GNDA.n19 0.0133968
R109 GNDA.n29 GNDA.n27 0.0128239
R110 GNDA.n25 GNDA.n1 0.0110634
R111 GNDA.n33 GNDA.n31 0.0110634
R112 GNDA.n37 GNDA.n36 0.0110634
R113 GNDA.n13 GNDA.n11 0.00942857
R114 I_IN.n13 I_IN.n7 496.536
R115 I_IN.n4 I_IN.n3 352.764
R116 I_IN.n3 I_IN.t0 276.026
R117 I_IN.n8 I_IN.n0 257.978
R118 I_IN.n10 I_IN.n2 185.601
R119 I_IN.n14 I_IN.n13 185.601
R120 I_IN.n6 I_IN.n5 179.03
R121 I_IN.n7 I_IN.n6 179.03
R122 I_IN.n12 I_IN.n11 179.03
R123 I_IN.n9 I_IN.n8 179.03
R124 I_IN.n15 I_IN.n14 168
R125 I_IN.n16 I_IN.n15 140.8
R126 I_IN.n0 I_IN.t3 122.501
R127 I_IN.n14 I_IN.t9 122.501
R128 I_IN.n3 I_IN.t1 122.501
R129 I_IN I_IN.n16 102.4
R130 I_IN.n2 I_IN.n1 92.5005
R131 I_IN.n5 I_IN.n4 79.8748
R132 I_IN.n13 I_IN.n12 72.377
R133 I_IN.n11 I_IN.n10 72.377
R134 I_IN.n10 I_IN.n9 72.377
R135 I_IN.n4 I_IN.t13 54.3436
R136 I_IN.n5 I_IN.t10 40.1672
R137 I_IN.n6 I_IN.t11 40.1672
R138 I_IN.n7 I_IN.t12 40.1672
R139 I_IN.n12 I_IN.t8 40.1672
R140 I_IN.n11 I_IN.t6 40.1672
R141 I_IN.n9 I_IN.t4 40.1672
R142 I_IN.n8 I_IN.t2 40.1672
R143 I_IN.n1 I_IN.t7 30.0005
R144 I_IN.n1 I_IN.t5 30.0005
R145 I_IN.n15 I_IN.n2 27.2005
R146 I_IN.n16 I_IN.n0 27.2005
R147 a_0_4990.n10 a_0_4990.n9 12826
R148 a_0_4990.n8 a_0_4990.n7 1392.53
R149 a_0_4990.n11 a_0_4990.n10 923.201
R150 a_0_4990.n3 a_0_4990.t1 509.75
R151 a_0_4990.n7 a_0_4990.t13 417.733
R152 a_0_4990.n6 a_0_4990.t7 341.75
R153 a_0_4990.n5 a_0_4990.n0 319.7
R154 a_0_4990.n4 a_0_4990.n1 319.7
R155 a_0_4990.n3 a_0_4990.n2 319.7
R156 a_0_4990.n12 a_0_4990.t8 290.5
R157 a_0_4990.n8 a_0_4990.t12 289.2
R158 a_0_4990.n9 a_0_4990.t15 289.2
R159 a_0_4990.n7 a_0_4990.t14 208.868
R160 a_0_4990.n9 a_0_4990.n8 208.868
R161 a_0_4990.n6 a_0_4990.n5 168
R162 a_0_4990.n12 a_0_4990.n11 168
R163 a_0_4990.n4 a_0_4990.n3 140.8
R164 a_0_4990.n5 a_0_4990.n4 140.8
R165 a_0_4990.n11 a_0_4990.t9 122.501
R166 a_0_4990.n13 a_0_4990.n12 119.701
R167 a_0_4990.n10 a_0_4990.n6 110.4
R168 a_0_4990.n0 a_0_4990.t4 49.2505
R169 a_0_4990.n0 a_0_4990.t3 49.2505
R170 a_0_4990.n1 a_0_4990.t6 49.2505
R171 a_0_4990.n1 a_0_4990.t5 49.2505
R172 a_0_4990.n2 a_0_4990.t2 49.2505
R173 a_0_4990.n2 a_0_4990.t0 49.2505
R174 a_0_4990.t11 a_0_4990.n13 30.0005
R175 a_0_4990.n13 a_0_4990.t10 30.0005
R176 a_1710_3900.n7 a_1710_3900.t4 1638.08
R177 a_1710_3900.n7 a_1710_3900.n6 706.301
R178 a_1710_3900.n9 a_1710_3900.n8 507.2
R179 a_1710_3900.n2 a_1710_3900.t9 316.514
R180 a_1710_3900.n0 a_1710_3900.t10 316.514
R181 a_1710_3900.n3 a_1710_3900.n2 276.348
R182 a_1710_3900.n4 a_1710_3900.n3 276.348
R183 a_1710_3900.n5 a_1710_3900.n4 276.348
R184 a_1710_3900.n1 a_1710_3900.n0 276.348
R185 a_1710_3900.n6 a_1710_3900.n5 261.887
R186 a_1710_3900.n9 a_1710_3900.t1 256.901
R187 a_1710_3900.n8 a_1710_3900.t2 184.826
R188 a_1710_3900.t0 a_1710_3900.n9 141.625
R189 a_1710_3900.n8 a_1710_3900.n7 92.8005
R190 a_1710_3900.n2 a_1710_3900.t5 40.1672
R191 a_1710_3900.n3 a_1710_3900.t3 40.1672
R192 a_1710_3900.n4 a_1710_3900.t8 40.1672
R193 a_1710_3900.n5 a_1710_3900.t7 40.1672
R194 a_1710_3900.n0 a_1710_3900.t11 40.1672
R195 a_1710_3900.n1 a_1710_3900.t6 40.1672
R196 a_1710_3900.n6 a_1710_3900.n1 14.4605
R197 V_OUT.n3 V_OUT.n1 3100.87
R198 V_OUT.n14 V_OUT.n10 1382.57
R199 V_OUT.n14 V_OUT.n13 1315.1
R200 V_OUT.n0 V_OUT.t13 1156.66
R201 V_OUT.n3 V_OUT.n2 996.134
R202 V_OUT.n15 V_OUT.n14 947.933
R203 V_OUT.n16 V_OUT.n15 869.333
R204 V_OUT.n15 V_OUT.n3 867.601
R205 V_OUT.n1 V_OUT.t15 546.268
R206 V_OUT.n7 V_OUT.t6 509.75
R207 V_OUT.n2 V_OUT.t14 401.668
R208 V_OUT.n10 V_OUT.t7 341.75
R209 V_OUT.n1 V_OUT.t17 337.401
R210 V_OUT.n7 V_OUT.n6 319.7
R211 V_OUT.n8 V_OUT.n5 319.7
R212 V_OUT.n9 V_OUT.n4 319.7
R213 V_OUT.n12 V_OUT.t2 290.5
R214 V_OUT.n0 V_OUT.t11 201.524
R215 V_OUT.n2 V_OUT.t16 192.8
R216 V_OUT.n13 V_OUT.n12 168
R217 V_OUT.n10 V_OUT.n9 168
R218 V_OUT.n9 V_OUT.n8 140.8
R219 V_OUT.n8 V_OUT.n7 140.8
R220 V_OUT.n13 V_OUT.t12 122.501
R221 V_OUT.n12 V_OUT.n11 119.701
R222 V_OUT.n6 V_OUT.t10 49.2505
R223 V_OUT.n6 V_OUT.t8 49.2505
R224 V_OUT.n5 V_OUT.t9 49.2505
R225 V_OUT.n5 V_OUT.t5 49.2505
R226 V_OUT.n4 V_OUT.t3 49.2505
R227 V_OUT.n4 V_OUT.t4 49.2505
R228 V_OUT.n16 V_OUT.n0 48.3205
R229 V_OUT.n11 V_OUT.t0 30.0005
R230 V_OUT.n11 V_OUT.t1 30.0005
R231 V_OUT V_OUT.n16 19.2005
R232 VDDA.n28 VDDA.t83 769.49
R233 VDDA.n41 VDDA.n40 297.151
R234 VDDA.n37 VDDA.n36 297.151
R235 VDDA.n34 VDDA.n33 297.151
R236 VDDA.n32 VDDA.n31 297.151
R237 VDDA.n27 VDDA.n26 297.151
R238 VDDA.n25 VDDA.n24 297.151
R239 VDDA.n20 VDDA.n19 297.151
R240 VDDA.n18 VDDA.n17 297.151
R241 VDDA.n12 VDDA.n11 297.151
R242 VDDA.n8 VDDA.n7 297.151
R243 VDDA.n4 VDDA.n3 297.151
R244 VDDA.n2 VDDA.n1 297.151
R245 VDDA.t64 VDDA.t14 182.692
R246 VDDA.t29 VDDA.t31 178.632
R247 VDDA.t39 VDDA.t29 178.632
R248 VDDA.t35 VDDA.t43 178.632
R249 VDDA.t51 VDDA.t49 178.632
R250 VDDA.t6 VDDA.t62 178.632
R251 VDDA.t78 VDDA.t2 174.573
R252 VDDA.t0 VDDA.t47 174.573
R253 VDDA.t53 VDDA.t41 158.333
R254 VDDA.n39 VDDA.t73 143.486
R255 VDDA.n38 VDDA.t17 143.486
R256 VDDA.n35 VDDA.t48 143.486
R257 VDDA.n30 VDDA.t77 143.486
R258 VDDA.n23 VDDA.t59 143.486
R259 VDDA.t37 VDDA.t58 142.095
R260 VDDA.n28 VDDA.t61 141.625
R261 VDDA.t74 VDDA.t20 141.588
R262 VDDA.n21 VDDA.t39 138.035
R263 VDDA.t33 VDDA.t78 133.975
R264 VDDA.t16 VDDA.t45 125.856
R265 VDDA.t70 VDDA.t74 123.317
R266 VDDA.t68 VDDA.t54 118.751
R267 VDDA.t27 VDDA.t12 118.751
R268 VDDA.t79 VDDA.t82 118.751
R269 VDDA.t76 VDDA.t4 117.736
R270 VDDA.t4 VDDA.t26 117.736
R271 VDDA.t80 VDDA.t10 114.183
R272 VDDA.t45 VDDA.t72 109.615
R273 VDDA.t18 VDDA.t22 105.049
R274 VDDA.t60 VDDA.t33 101.496
R275 VDDA.n16 VDDA.n15 99.0505
R276 VDDA.n14 VDDA.n13 99.0505
R277 VDDA.n10 VDDA.n9 99.0505
R278 VDDA.n6 VDDA.n5 99.0505
R279 VDDA.n0 VDDA.t68 86.7793
R280 VDDA.t8 VDDA.t18 77.6447
R281 VDDA.t41 VDDA.t60 77.1372
R282 VDDA.n22 VDDA.n21 75.8605
R283 VDDA.t72 VDDA.t6 69.0176
R284 VDDA.t14 VDDA.t80 68.5101
R285 VDDA.n2 VDDA.n0 63.2208
R286 VDDA.t2 VDDA.t76 60.8979
R287 VDDA.t26 VDDA.t0 60.8979
R288 VDDA.t54 VDDA.t66 59.3755
R289 VDDA.t66 VDDA.t70 59.3755
R290 VDDA.t82 VDDA.t56 59.3755
R291 VDDA.t56 VDDA.t81 59.3755
R292 VDDA.t49 VDDA.t16 52.7783
R293 VDDA.t12 VDDA.t64 50.2409
R294 VDDA.n40 VDDA.t7 49.2505
R295 VDDA.n40 VDDA.t63 49.2505
R296 VDDA.n36 VDDA.t50 49.2505
R297 VDDA.n36 VDDA.t46 49.2505
R298 VDDA.n33 VDDA.t1 49.2505
R299 VDDA.n33 VDDA.t52 49.2505
R300 VDDA.n31 VDDA.t3 49.2505
R301 VDDA.n31 VDDA.t5 49.2505
R302 VDDA.n26 VDDA.t42 49.2505
R303 VDDA.n26 VDDA.t34 49.2505
R304 VDDA.n24 VDDA.t36 49.2505
R305 VDDA.n24 VDDA.t44 49.2505
R306 VDDA.n19 VDDA.t40 49.2505
R307 VDDA.n19 VDDA.t38 49.2505
R308 VDDA.n17 VDDA.t32 49.2505
R309 VDDA.n17 VDDA.t30 49.2505
R310 VDDA.n11 VDDA.t28 49.2505
R311 VDDA.n11 VDDA.t13 49.2505
R312 VDDA.n7 VDDA.t21 49.2505
R313 VDDA.n7 VDDA.t19 49.2505
R314 VDDA.n3 VDDA.t55 49.2505
R315 VDDA.n3 VDDA.t71 49.2505
R316 VDDA.n1 VDDA.t25 49.2505
R317 VDDA.n1 VDDA.t69 49.2505
R318 VDDA.t20 VDDA.t8 41.1063
R319 VDDA.n21 VDDA.t37 40.5988
R320 VDDA.t58 VDDA.t35 36.539
R321 VDDA.n0 VDDA.t24 31.9717
R322 VDDA.t43 VDDA.t53 20.2996
R323 VDDA.n15 VDDA.t11 19.7005
R324 VDDA.n15 VDDA.t57 19.7005
R325 VDDA.n13 VDDA.t65 19.7005
R326 VDDA.n13 VDDA.t15 19.7005
R327 VDDA.n9 VDDA.t9 19.7005
R328 VDDA.n9 VDDA.t23 19.7005
R329 VDDA.n5 VDDA.t67 19.7005
R330 VDDA.n5 VDDA.t75 19.7005
R331 VDDA.t22 VDDA.t27 13.7024
R332 VDDA.t10 VDDA.t79 4.56781
R333 VDDA.t47 VDDA.t51 4.06033
R334 VDDA.n29 VDDA.n28 1.8605
R335 VDDA.n18 VDDA.n16 0.188454
R336 VDDA VDDA.n41 0.0566024
R337 VDDA.n16 VDDA.n14 0.0485769
R338 VDDA.n30 VDDA.n29 0.0447913
R339 VDDA.n20 VDDA.n18 0.0438071
R340 VDDA.n27 VDDA.n25 0.0438071
R341 VDDA.n34 VDDA.n32 0.0438071
R342 VDDA.n8 VDDA.n6 0.0389615
R343 VDDA.n4 VDDA.n2 0.03175
R344 VDDA.n23 VDDA.n22 0.0290433
R345 VDDA.n39 VDDA.n38 0.0290433
R346 VDDA.n37 VDDA.n35 0.0270748
R347 VDDA.n14 VDDA.n12 0.0269423
R348 VDDA.n12 VDDA.n10 0.0221346
R349 VDDA.n35 VDDA.n34 0.0172323
R350 VDDA.n41 VDDA.n39 0.0132953
R351 VDDA.n6 VDDA.n4 0.0125192
R352 VDDA.n32 VDDA.n30 0.0103425
R353 VDDA.n10 VDDA.n8 0.0101154
R354 VDDA.n25 VDDA.n23 0.00935827
R355 VDDA.n22 VDDA.n20 0.00640551
R356 VDDA.n29 VDDA.n27 0.00542126
R357 VDDA.n38 VDDA.n37 0.0024685
R358 charge_pump_full_5_0.opamp_cell_0.p_right.t0 charge_pump_full_5_0.opamp_cell_0.p_right.n6 4781.46
R359 charge_pump_full_5_0.opamp_cell_0.p_right.n3 charge_pump_full_5_0.opamp_cell_0.p_right.n2 2321
R360 charge_pump_full_5_0.opamp_cell_0.p_right.n2 charge_pump_full_5_0.opamp_cell_0.p_right.n0 415.7
R361 charge_pump_full_5_0.opamp_cell_0.p_right.n2 charge_pump_full_5_0.opamp_cell_0.p_right.n1 277.8
R362 charge_pump_full_5_0.opamp_cell_0.p_right.n6 charge_pump_full_5_0.opamp_cell_0.p_right.n5 208.868
R363 charge_pump_full_5_0.opamp_cell_0.p_right.n5 charge_pump_full_5_0.opamp_cell_0.p_right.n4 208.868
R364 charge_pump_full_5_0.opamp_cell_0.p_right.n4 charge_pump_full_5_0.opamp_cell_0.p_right.n3 208.868
R365 charge_pump_full_5_0.opamp_cell_0.p_right.n3 charge_pump_full_5_0.opamp_cell_0.p_right.t7 112.468
R366 charge_pump_full_5_0.opamp_cell_0.p_right.n4 charge_pump_full_5_0.opamp_cell_0.p_right.t5 112.468
R367 charge_pump_full_5_0.opamp_cell_0.p_right.n5 charge_pump_full_5_0.opamp_cell_0.p_right.t8 112.468
R368 charge_pump_full_5_0.opamp_cell_0.p_right.n6 charge_pump_full_5_0.opamp_cell_0.p_right.t6 112.468
R369 charge_pump_full_5_0.opamp_cell_0.p_right.n1 charge_pump_full_5_0.opamp_cell_0.p_right.t1 60.0005
R370 charge_pump_full_5_0.opamp_cell_0.p_right.n1 charge_pump_full_5_0.opamp_cell_0.p_right.t4 60.0005
R371 charge_pump_full_5_0.opamp_cell_0.p_right.n0 charge_pump_full_5_0.opamp_cell_0.p_right.t2 49.2505
R372 charge_pump_full_5_0.opamp_cell_0.p_right.n0 charge_pump_full_5_0.opamp_cell_0.p_right.t3 49.2505
R373 charge_pump_full_5_0.charge_pump_cell_0.OPAMP_out.n13 charge_pump_full_5_0.charge_pump_cell_0.OPAMP_out.n12 3179.47
R374 charge_pump_full_5_0.charge_pump_cell_0.OPAMP_out.n3 charge_pump_full_5_0.charge_pump_cell_0.OPAMP_out.n2 929.601
R375 charge_pump_full_5_0.charge_pump_cell_0.OPAMP_out.n15 charge_pump_full_5_0.charge_pump_cell_0.OPAMP_out.n14 686.721
R376 charge_pump_full_5_0.charge_pump_cell_0.OPAMP_out.n1 charge_pump_full_5_0.charge_pump_cell_0.OPAMP_out.t9 452.151
R377 charge_pump_full_5_0.charge_pump_cell_0.OPAMP_out.n12 charge_pump_full_5_0.charge_pump_cell_0.OPAMP_out.n11 449.233
R378 charge_pump_full_5_0.charge_pump_cell_0.OPAMP_out.n2 charge_pump_full_5_0.charge_pump_cell_0.OPAMP_out.t0 341.75
R379 charge_pump_full_5_0.charge_pump_cell_0.OPAMP_out.n16 charge_pump_full_5_0.charge_pump_cell_0.OPAMP_out.t4 330.76
R380 charge_pump_full_5_0.charge_pump_cell_0.OPAMP_out.n1 charge_pump_full_5_0.charge_pump_cell_0.OPAMP_out.n0 319.7
R381 charge_pump_full_5_0.charge_pump_cell_0.OPAMP_out.n15 charge_pump_full_5_0.charge_pump_cell_0.OPAMP_out.t5 264.2
R382 charge_pump_full_5_0.charge_pump_cell_0.OPAMP_out.n6 charge_pump_full_5_0.charge_pump_cell_0.OPAMP_out.t12 257.067
R383 charge_pump_full_5_0.charge_pump_cell_0.OPAMP_out.n5 charge_pump_full_5_0.charge_pump_cell_0.OPAMP_out.t14 257.067
R384 charge_pump_full_5_0.charge_pump_cell_0.OPAMP_out.n4 charge_pump_full_5_0.charge_pump_cell_0.OPAMP_out.t7 256.901
R385 charge_pump_full_5_0.charge_pump_cell_0.OPAMP_out.n7 charge_pump_full_5_0.charge_pump_cell_0.OPAMP_out.n6 216.9
R386 charge_pump_full_5_0.charge_pump_cell_0.OPAMP_out.n8 charge_pump_full_5_0.charge_pump_cell_0.OPAMP_out.n7 216.9
R387 charge_pump_full_5_0.charge_pump_cell_0.OPAMP_out.n9 charge_pump_full_5_0.charge_pump_cell_0.OPAMP_out.n8 216.9
R388 charge_pump_full_5_0.charge_pump_cell_0.OPAMP_out.n10 charge_pump_full_5_0.charge_pump_cell_0.OPAMP_out.n9 216.9
R389 charge_pump_full_5_0.charge_pump_cell_0.OPAMP_out.n11 charge_pump_full_5_0.charge_pump_cell_0.OPAMP_out.n5 204.851
R390 charge_pump_full_5_0.charge_pump_cell_0.OPAMP_out.n17 charge_pump_full_5_0.charge_pump_cell_0.OPAMP_out.n16 204.201
R391 charge_pump_full_5_0.charge_pump_cell_0.OPAMP_out.n4 charge_pump_full_5_0.charge_pump_cell_0.OPAMP_out.t1 141.625
R392 charge_pump_full_5_0.charge_pump_cell_0.OPAMP_out.n2 charge_pump_full_5_0.charge_pump_cell_0.OPAMP_out.n1 110.4
R393 charge_pump_full_5_0.charge_pump_cell_0.OPAMP_out.n13 charge_pump_full_5_0.charge_pump_cell_0.OPAMP_out.n3 92.9858
R394 charge_pump_full_5_0.charge_pump_cell_0.OPAMP_out.n12 charge_pump_full_5_0.charge_pump_cell_0.OPAMP_out.n4 91.2005
R395 charge_pump_full_5_0.charge_pump_cell_0.OPAMP_out.n14 charge_pump_full_5_0.charge_pump_cell_0.OPAMP_out.t11 73.2829
R396 charge_pump_full_5_0.charge_pump_cell_0.OPAMP_out.n16 charge_pump_full_5_0.charge_pump_cell_0.OPAMP_out.n15 66.5605
R397 charge_pump_full_5_0.charge_pump_cell_0.OPAMP_out.n3 charge_pump_full_5_0.charge_pump_cell_0.OPAMP_out.t15 63.6829
R398 charge_pump_full_5_0.charge_pump_cell_0.OPAMP_out.n17 charge_pump_full_5_0.charge_pump_cell_0.OPAMP_out.t3 60.0005
R399 charge_pump_full_5_0.charge_pump_cell_0.OPAMP_out.t6 charge_pump_full_5_0.charge_pump_cell_0.OPAMP_out.n17 60.0005
R400 charge_pump_full_5_0.charge_pump_cell_0.OPAMP_out.n0 charge_pump_full_5_0.charge_pump_cell_0.OPAMP_out.t8 49.2505
R401 charge_pump_full_5_0.charge_pump_cell_0.OPAMP_out.n0 charge_pump_full_5_0.charge_pump_cell_0.OPAMP_out.t2 49.2505
R402 charge_pump_full_5_0.charge_pump_cell_0.OPAMP_out.n14 charge_pump_full_5_0.charge_pump_cell_0.OPAMP_out.n13 41.6005
R403 charge_pump_full_5_0.charge_pump_cell_0.OPAMP_out.n6 charge_pump_full_5_0.charge_pump_cell_0.OPAMP_out.t10 40.1672
R404 charge_pump_full_5_0.charge_pump_cell_0.OPAMP_out.n7 charge_pump_full_5_0.charge_pump_cell_0.OPAMP_out.t19 40.1672
R405 charge_pump_full_5_0.charge_pump_cell_0.OPAMP_out.n8 charge_pump_full_5_0.charge_pump_cell_0.OPAMP_out.t18 40.1672
R406 charge_pump_full_5_0.charge_pump_cell_0.OPAMP_out.n9 charge_pump_full_5_0.charge_pump_cell_0.OPAMP_out.t17 40.1672