* PEX produced on Mon Feb 24 09:52:34 AM CET 2025 using /foss/tools/osic-multitool/iic-pex.sh with m=3 and s=1
* NGSPICE file created from pfd_cp_lf_magic_2.ext - technology: sky130A

.subckt pfd_cp_lf_magic V_OUT VDDA GNDA F_REF F_VCO I_IN
X0 GNDA.t86 a_6200_5250.t2 a_6200_5250.t3 GNDA.t85 sky130_fd_pr__nfet_01v8 ad=0.125 pd=1 as=0.125 ps=1 w=0.5 l=0.15
X1 a_5970_4630.t7 opamp_cell_4_0.VIN- a_6200_5250.t5 VDDA.t88 sky130_fd_pr__pfet_01v8 ad=0.25 pd=1.5 as=0.25 ps=1.5 w=1 l=0.15
X2 pfd_8_0.DOWN_b.t1 VDDA.t130 pfd_8_0.DOWN_PFD_b.t3 GNDA.t55 sky130_fd_pr__nfet_01v8 ad=0.5 pd=3 as=0.5 ps=3 w=1 l=0.15
X3 a_870_1400.t0 pfd_8_0.QA_b.t3 VDDA.t128 VDDA.t39 sky130_fd_pr__pfet_01v8 ad=0.4 pd=2.4 as=0.8 ps=4.8 w=2 l=0.15
X4 pfd_8_0.DOWN.t1 pfd_8_0.DOWN_b.t2 VDDA.t13 VDDA.t12 sky130_fd_pr__pfet_01v8 ad=1 pd=5 as=1 ps=5 w=2 l=0.15
X5 GNDA.t128 GNDA.t126 GNDA.t128 GNDA.t127 sky130_fd_pr__nfet_01v8 ad=0.5 pd=2.5 as=0 ps=0 w=2 l=0.6
X6 VDDA.t26 pfd_8_0.UP_input.t13 opamp_cell_4_0.VIN+.t4 VDDA.t25 sky130_fd_pr__pfet_01v8 ad=0.5 pd=2.5 as=0.5 ps=2.5 w=2 l=0.6
X7 opamp_cell_4_0.n_right.t1 opamp_cell_4_0.VIN+.t6 a_6320_5840.t0 GNDA.t70 sky130_fd_pr__nfet_01v8 ad=0.125 pd=1 as=0.125 ps=1 w=0.5 l=0.15
X8 opamp_cell_4_0.n_right.t4 opamp_cell_4_0.n_left.t6 VDDA.t53 VDDA.t52 sky130_fd_pr__pfet_01v8 ad=0.25 pd=1.5 as=0.25 ps=1.5 w=1 l=0.15
X9 pfd_8_0.UP_input.t10 opamp_cell_4_0.n_right.t5 VDDA.t84 VDDA.t83 sky130_fd_pr__pfet_01v8 ad=0.25 pd=1.5 as=0.25 ps=1.5 w=1 l=0.15
X10 pfd_8_0.UP_input.t7 a_6490_4630.t5 GNDA.t69 GNDA.t68 sky130_fd_pr__nfet_01v8 ad=0.125 pd=1 as=0.125 ps=1 w=0.5 l=0.15
X11 a_2350_1400.t0 pfd_8_0.before_Reset.t3 GNDA.t72 GNDA.t71 sky130_fd_pr__nfet_01v8 ad=0.4 pd=2.8 as=0.4 ps=2.8 w=1 l=0.15
X12 pfd_8_0.DOWN.t0 pfd_8_0.DOWN_b.t3 GNDA.t48 GNDA.t47 sky130_fd_pr__nfet_01v8 ad=0.5 pd=3 as=0.5 ps=3 w=1 l=0.15
X13 VDDA.t74 opamp_cell_4_0.p_bias.t7 opamp_cell_4_0.p_bias.t8 VDDA.t73 sky130_fd_pr__pfet_01v8 ad=0.625 pd=3 as=0.625 ps=3 w=2.5 l=0.5
X14 a_n30_1400.t0 F_REF.t0 VDDA.t6 VDDA.t5 sky130_fd_pr__pfet_01v8 ad=0.4 pd=2.4 as=0.8 ps=4.8 w=2 l=0.15
X15 GNDA.t31 pfd_8_0.QA.t3 pfd_8_0.QA_b.t1 GNDA.t30 sky130_fd_pr__nfet_01v8 ad=0.4 pd=2.8 as=0.2 ps=1.4 w=1 l=0.15
X16 a_6200_5250.t1 a_6200_5250.t0 GNDA.t84 GNDA.t83 sky130_fd_pr__nfet_01v8 ad=0.125 pd=1 as=0.125 ps=1 w=0.5 l=0.15
X17 a_6200_5250.t4 opamp_cell_4_0.VIN- a_5970_4630.t6 VDDA.t87 sky130_fd_pr__pfet_01v8 ad=0.25 pd=1.5 as=0.25 ps=1.5 w=1 l=0.15
X18 VDDA.t47 opamp_cell_4_0.p_bias.t9 a_5970_4630.t2 VDDA.t46 sky130_fd_pr__pfet_01v8 ad=0.625 pd=3 as=0.625 ps=3 w=2.5 l=0.5
X19 VDDA.t125 VDDA.t122 VDDA.t124 VDDA.t123 sky130_fd_pr__pfet_01v8 ad=1 pd=5 as=0 ps=0 w=2 l=0.6
X20 pfd_8_0.DOWN_input.t1 pfd_8_0.DOWN_b.t4 I_IN.t5 VDDA.t7 sky130_fd_pr__pfet_01v8 ad=1 pd=5 as=1 ps=5 w=2 l=0.15
X21 VDDA.t121 VDDA.t119 VDDA.t121 VDDA.t120 sky130_fd_pr__pfet_01v8 ad=0.5 pd=2.5 as=0 ps=0 w=2 l=0.6
X22 VDDA.t11 pfd_8_0.UP_input.t14 V_OUT.t5 VDDA.t10 sky130_fd_pr__pfet_01v8 ad=0.5 pd=2.5 as=0.5 ps=2.5 w=2 l=0.6
X23 a_1910_2020.t1 pfd_8_0.QB.t3 GNDA.t33 GNDA.t32 sky130_fd_pr__nfet_01v8 ad=0.2 pd=1.4 as=0.4 ps=2.8 w=1 l=0.15
X24 a_6220_5810.t8 a_6220_5810.t7 GNDA.t40 GNDA.t39 sky130_fd_pr__nfet_01v8 ad=0.3125 pd=1.75 as=0.3125 ps=1.75 w=1.25 l=0.5
X25 GNDA.t138 pfd_8_0.DOWN_input.t3 V_OUT.t1 GNDA.t137 sky130_fd_pr__nfet_01v8 ad=0.5 pd=2.5 as=0.5 ps=2.5 w=2 l=0.6
X26 pfd_8_0.UP.t1 pfd_8_0.UP_PFD_b.t2 VDDA.t86 VDDA.t85 sky130_fd_pr__pfet_01v8 ad=1 pd=5 as=1 ps=5 w=2 l=0.15
X27 a_6320_5840.t9 a_6220_5810.t9 GNDA.t140 GNDA.t139 sky130_fd_pr__nfet_01v8 ad=0.3125 pd=1.75 as=0.3125 ps=1.75 w=1.25 l=0.5
X28 pfd_8_0.UP_input.t12 pfd_8_0.UP.t2 pfd_8_0.UP_input.t11 GNDA.t76 sky130_fd_pr__nfet_01v8 ad=0.5 pd=3 as=0 ps=0 w=1 l=0.15
X29 pfd_8_0.QA.t1 pfd_8_0.QA_b.t4 GNDA.t1 GNDA.t0 sky130_fd_pr__nfet_01v8 ad=0.2 pd=1.4 as=0.4 ps=2.8 w=1 l=0.15
X30 a_5970_4630.t5 opamp_cell_4_0.p_bias.t10 VDDA.t68 VDDA.t67 sky130_fd_pr__pfet_01v8 ad=0.625 pd=3 as=0.625 ps=3 w=2.5 l=0.5
X31 pfd_8_0.DOWN_input.t0 pfd_8_0.DOWN.t2 I_IN.t4 GNDA.t73 sky130_fd_pr__nfet_01v8 ad=0.5 pd=3 as=0.5 ps=3 w=1 l=0.15
X32 GNDA.t134 I_IN.t6 opamp_cell_4_0.VIN+.t5 GNDA.t133 sky130_fd_pr__nfet_01v8 ad=0.5 pd=2.5 as=0.5 ps=2.5 w=2 l=0.6
X33 a_1390_1400.t0 pfd_8_0.E.t3 pfd_8_0.E_b.t0 VDDA.t22 sky130_fd_pr__pfet_01v8 ad=0.4 pd=2.4 as=0.8 ps=4.8 w=2 l=0.15
X34 a_870_640.t1 pfd_8_0.QB_b.t3 VDDA.t40 VDDA.t39 sky130_fd_pr__pfet_01v8 ad=0.4 pd=2.4 as=0.8 ps=4.8 w=2 l=0.15
X35 VDDA.t118 VDDA.t115 VDDA.t117 VDDA.t116 sky130_fd_pr__pfet_01v8 ad=0.5 pd=3 as=0 ps=0 w=1 l=0.15
X36 V_OUT.t6 loop_filter_2_0.R1_C1.t0 GNDA.t36 sky130_fd_pr__res_xhigh_po_0p35 l=7.52
X37 VDDA.t17 a_2530_190.t2 a_2200_190.t1 VDDA.t16 sky130_fd_pr__pfet_01v8 ad=0.8 pd=4.8 as=0.8 ps=4.8 w=2 l=0.15
X38 GNDA.t125 GNDA.t123 GNDA.t125 GNDA.t124 sky130_fd_pr__nfet_01v8 ad=0.3125 pd=1.75 as=0 ps=0 w=1.25 l=0.5
X39 GNDA.t122 GNDA.t119 GNDA.t121 GNDA.t120 sky130_fd_pr__nfet_01v8 ad=0.25 pd=2 as=0 ps=0 w=0.5 l=0.15
X40 opamp_cell_4_0.p_bias.t6 opamp_cell_4_0.p_bias.t5 VDDA.t76 VDDA.t75 sky130_fd_pr__pfet_01v8 ad=0.625 pd=3 as=0.625 ps=3 w=2.5 l=0.5
X41 VDDA.t114 VDDA.t112 VDDA.t114 VDDA.t113 sky130_fd_pr__pfet_01v8 ad=0.5 pd=2.5 as=0 ps=0 w=2 l=0.6
X42 V_OUT.t4 pfd_8_0.UP_input.t15 VDDA.t72 VDDA.t71 sky130_fd_pr__pfet_01v8 ad=0.5 pd=2.5 as=0.5 ps=2.5 w=2 l=0.6
X43 pfd_8_0.DOWN_input.t2 pfd_8_0.DOWN_b.t5 GNDA.t13 GNDA.t12 sky130_fd_pr__nfet_01v8 ad=0.5 pd=3 as=0.5 ps=3 w=1 l=0.15
X44 GNDA.t17 a_2530_190.t3 a_2200_190.t0 GNDA.t16 sky130_fd_pr__nfet_01v8 ad=0.4 pd=2.8 as=0.4 ps=2.8 w=1 l=0.15
X45 pfd_8_0.F.t2 pfd_8_0.QB_b.t4 GNDA.t50 GNDA.t49 sky130_fd_pr__nfet_01v8 ad=0.2 pd=1.4 as=0.4 ps=2.8 w=1 l=0.15
X46 GNDA.t118 GNDA.t115 GNDA.t117 GNDA.t116 sky130_fd_pr__nfet_01v8 ad=0.625 pd=3.5 as=0 ps=0 w=1.25 l=0.5
X47 pfd_8_0.UP_input.t16 a_9360_6440.t0 sky130_fd_pr__cap_mim_m3_1 l=10 w=10
X48 V_OUT.t0 pfd_8_0.DOWN_input.t4 GNDA.t136 GNDA.t135 sky130_fd_pr__nfet_01v8 ad=0.5 pd=2.5 as=0.5 ps=2.5 w=2 l=0.6
X49 pfd_8_0.UP_b.t0 pfd_8_0.UP.t3 GNDA.t153 GNDA.t152 sky130_fd_pr__nfet_01v8 ad=0.5 pd=3 as=0.5 ps=3 w=1 l=0.15
X50 GNDA.t147 pfd_8_0.E_b.t3 pfd_8_0.E.t1 GNDA.t146 sky130_fd_pr__nfet_01v8 ad=0.4 pd=2.8 as=0.2 ps=1.4 w=1 l=0.15
X51 GNDA.t145 a_6220_5810.t10 a_6320_5840.t11 GNDA.t144 sky130_fd_pr__nfet_01v8 ad=0.3125 pd=1.75 as=0.3125 ps=1.75 w=1.25 l=0.5
X52 a_1390_640.t0 pfd_8_0.F.t3 pfd_8_0.F_b.t1 VDDA.t22 sky130_fd_pr__pfet_01v8 ad=0.4 pd=2.4 as=0.8 ps=4.8 w=2 l=0.15
X53 a_2350_1400.t1 pfd_8_0.before_Reset.t4 VDDA.t66 VDDA.t65 sky130_fd_pr__pfet_01v8 ad=0.8 pd=4.8 as=0.8 ps=4.8 w=2 l=0.15
X54 opamp_cell_4_0.VIN+.t0 I_IN.t7 GNDA.t25 GNDA.t24 sky130_fd_pr__nfet_01v8 ad=0.5 pd=2.5 as=0.5 ps=2.5 w=2 l=0.6
X55 GNDA.t44 a_6220_5810.t5 a_6220_5810.t6 GNDA.t43 sky130_fd_pr__nfet_01v8 ad=0.3125 pd=1.75 as=0.3125 ps=1.75 w=1.25 l=0.5
X56 GNDA.t114 GNDA.t112 GNDA.t114 GNDA.t113 sky130_fd_pr__nfet_01v8 ad=0.125 pd=1 as=0 ps=0 w=0.5 l=0.15
X57 a_5970_4630.t12 a_5970_4630.t11 a_5970_4630.t12 VDDA.t90 sky130_fd_pr__pfet_01v8 ad=0.25 pd=1.5 as=0 ps=0 w=1 l=0.15
X58 pfd_8_0.F_b.t2 pfd_8_0.F.t4 GNDA.t19 GNDA.t18 sky130_fd_pr__nfet_01v8 ad=0.2 pd=1.4 as=0.4 ps=2.8 w=1 l=0.15
X59 VDDA.t9 pfd_8_0.UP_input.t17 V_OUT.t3 VDDA.t8 sky130_fd_pr__pfet_01v8 ad=0.5 pd=2.5 as=0.5 ps=2.5 w=2 l=0.6
X60 GNDA.t156 loop_filter_2_0.R1_C1.t1 sky130_fd_pr__cap_mim_m3_1 l=60 w=69.8
X61 VDDA.t36 pfd_8_0.F.t5 a_490_640.t1 VDDA.t35 sky130_fd_pr__pfet_01v8 ad=0.8 pd=4.8 as=0.4 ps=2.4 w=2 l=0.15
X62 VDDA.t111 VDDA.t109 VDDA.t111 VDDA.t110 sky130_fd_pr__pfet_01v8 ad=0.25 pd=1.5 as=0 ps=0 w=1 l=0.15
X63 GNDA.t111 GNDA.t109 GNDA.t111 GNDA.t110 sky130_fd_pr__nfet_01v8 ad=0.5 pd=2.5 as=0 ps=0 w=2 l=0.6
X64 pfd_8_0.QA_b.t2 pfd_8_0.QA.t4 a_n30_1400.t1 VDDA.t4 sky130_fd_pr__pfet_01v8 ad=0.8 pd=4.8 as=0.4 ps=2.4 w=2 l=0.15
X65 GNDA.t108 GNDA.t106 GNDA.t108 GNDA.t107 sky130_fd_pr__nfet_01v8 ad=0.125 pd=1 as=0 ps=0 w=0.5 l=0.15
X66 pfd_8_0.UP_input.t18 charge_pump_cell_6_0.UP_b.t1 sky130_fd_pr__cap_mim_m3_1 l=16 w=13.9
X67 GNDA.t54 pfd_8_0.F.t6 pfd_8_0.QB.t0 GNDA.t53 sky130_fd_pr__nfet_01v8 ad=0.4 pd=2.8 as=0.2 ps=1.4 w=1 l=0.15
X68 GNDA.t105 GNDA.t103 GNDA.t105 GNDA.t104 sky130_fd_pr__nfet_01v8 ad=0.5 pd=2.5 as=0 ps=0 w=2 l=0.6
X69 pfd_8_0.before_Reset.t1 pfd_8_0.QB.t4 VDDA.t24 VDDA.t23 sky130_fd_pr__pfet_01v8 ad=0.4 pd=2.4 as=0.805 ps=5 w=2 l=0.15
X70 GNDA.t67 a_6490_4630.t6 pfd_8_0.UP_input.t6 GNDA.t66 sky130_fd_pr__nfet_01v8 ad=0.125 pd=1 as=0.125 ps=1 w=0.5 l=0.15
X71 VDDA.t28 opamp_cell_4_0.n_right.t6 pfd_8_0.UP_input.t1 VDDA.t27 sky130_fd_pr__pfet_01v8 ad=0.25 pd=1.5 as=0.25 ps=1.5 w=1 l=0.15
X72 opamp_cell_4_0.VIN+.t3 pfd_8_0.UP_input.t19 VDDA.t55 VDDA.t54 sky130_fd_pr__pfet_01v8 ad=0.5 pd=2.5 as=0.5 ps=2.5 w=2 l=0.6
X73 pfd_8_0.UP_input.t9 pfd_8_0.UP_b.t2 pfd_8_0.UP_input.t8 VDDA.t7 sky130_fd_pr__pfet_01v8 ad=1 pd=5 as=0 ps=0 w=2 l=0.15
X74 a_490_1400.t1 pfd_8_0.QA_b.t5 pfd_8_0.QA.t0 VDDA.t58 sky130_fd_pr__pfet_01v8 ad=0.4 pd=2.4 as=0.8 ps=4.8 w=2 l=0.15
X75 V_OUT.t2 pfd_8_0.UP_input.t20 VDDA.t1 VDDA.t0 sky130_fd_pr__pfet_01v8 ad=0.5 pd=2.5 as=0.5 ps=2.5 w=2 l=0.6
X76 GNDA.t42 pfd_8_0.Reset.t2 pfd_8_0.E_b.t2 GNDA.t41 sky130_fd_pr__nfet_01v8 ad=0.4 pd=2.8 as=0.2 ps=1.4 w=1 l=0.15
X77 a_2530_190.t0 a_2350_1400.t2 GNDA.t61 GNDA.t60 sky130_fd_pr__nfet_01v8 ad=0.4 pd=2.8 as=0.4 ps=2.8 w=1 l=0.15
X78 VDDA.t82 opamp_cell_4_0.n_left.t2 opamp_cell_4_0.n_left.t3 VDDA.t81 sky130_fd_pr__pfet_01v8 ad=0.25 pd=1.5 as=0.25 ps=1.5 w=1 l=0.15
X79 a_6320_5840.t7 opamp_cell_4_0.VIN- opamp_cell_4_0.n_left.t5 GNDA.t130 sky130_fd_pr__nfet_01v8 ad=0.125 pd=1 as=0.125 ps=1 w=0.5 l=0.15
X80 GNDA.t7 I_IN.t2 I_IN.t3 GNDA.t6 sky130_fd_pr__nfet_01v8 ad=0.5 pd=2.5 as=0.5 ps=2.5 w=2 l=0.6
X81 pfd_8_0.E.t2 pfd_8_0.E_b.t4 a_870_1400.t1 VDDA.t19 sky130_fd_pr__pfet_01v8 ad=0.8 pd=4.8 as=0.4 ps=2.4 w=2 l=0.15
X82 pfd_8_0.UP_b.t1 pfd_8_0.UP.t4 VDDA.t129 VDDA.t12 sky130_fd_pr__pfet_01v8 ad=1 pd=5 as=1 ps=5 w=2 l=0.15
X83 a_5970_4630.t10 a_5970_4630.t8 a_5970_4630.t9 VDDA.t89 sky130_fd_pr__pfet_01v8 ad=0.5 pd=3 as=0 ps=0 w=1 l=0.15
X84 GNDA.t102 GNDA.t99 GNDA.t101 GNDA.t100 sky130_fd_pr__nfet_01v8 ad=0.25 pd=2 as=0 ps=0 w=0.5 l=0.15
X85 pfd_8_0.DOWN_input.t5 charge_pump_cell_6_0.DOWN.t0 sky130_fd_pr__cap_mim_m3_1 l=2.6 w=3.8
X86 VDDA.t60 a_1870_190.t2 pfd_8_0.Reset.t1 VDDA.t59 sky130_fd_pr__pfet_01v8 ad=0.8 pd=4.8 as=0.8 ps=4.8 w=2 l=0.15
X87 pfd_8_0.UP_input.t5 a_6490_4630.t7 GNDA.t65 GNDA.t64 sky130_fd_pr__nfet_01v8 ad=0.125 pd=1 as=0.125 ps=1 w=0.5 l=0.15
X88 pfd_8_0.UP_input.t0 opamp_cell_4_0.n_right.t7 VDDA.t21 VDDA.t20 sky130_fd_pr__pfet_01v8 ad=0.25 pd=1.5 as=0.25 ps=1.5 w=1 l=0.15
X89 GNDA.t21 a_1870_190.t3 pfd_8_0.Reset.t0 GNDA.t20 sky130_fd_pr__nfet_01v8 ad=0.4 pd=2.8 as=0.4 ps=2.8 w=1 l=0.15
X90 VDDA.t108 VDDA.t105 VDDA.t107 VDDA.t106 sky130_fd_pr__pfet_01v8 ad=1 pd=5 as=0 ps=0 w=2 l=0.6
X91 opamp_cell_4_0.p_bias.t4 opamp_cell_4_0.p_bias.t3 VDDA.t78 VDDA.t77 sky130_fd_pr__pfet_01v8 ad=0.625 pd=3 as=0.625 ps=3 w=2.5 l=0.5
X92 I_IN.t1 I_IN.t0 GNDA.t38 GNDA.t37 sky130_fd_pr__nfet_01v8 ad=0.5 pd=2.5 as=0.5 ps=2.5 w=2 l=0.6
X93 opamp_cell_4_0.p_bias.t0 a_6220_5810.t0 GNDA.t35 sky130_fd_pr__res_xhigh_po_5p73 l=1
X94 opamp_cell_4_0.n_left.t1 opamp_cell_4_0.n_left.t0 VDDA.t57 VDDA.t56 sky130_fd_pr__pfet_01v8 ad=0.25 pd=1.5 as=0.25 ps=1.5 w=1 l=0.15
X95 GNDA.t157 V_OUT.t7 sky130_fd_pr__cap_mim_m3_1 l=60 w=13.8
X96 opamp_cell_4_0.n_left.t4 opamp_cell_4_0.VIN- a_6320_5840.t8 GNDA.t129 sky130_fd_pr__nfet_01v8 ad=0.125 pd=1 as=0.125 ps=1 w=0.5 l=0.15
X97 a_5970_4630.t4 opamp_cell_4_0.p_bias.t11 VDDA.t64 VDDA.t63 sky130_fd_pr__pfet_01v8 ad=0.625 pd=3 as=0.625 ps=3 w=2.5 l=0.5
X98 pfd_8_0.before_Reset.t0 pfd_8_0.QA.t5 a_1910_2020.t0 GNDA.t15 sky130_fd_pr__nfet_01v8 ad=0.4 pd=2.8 as=0.2 ps=1.4 w=1 l=0.15
X99 pfd_8_0.UP_PFD_b.t0 pfd_8_0.QA.t6 GNDA.t9 GNDA.t8 sky130_fd_pr__nfet_01v8 ad=0.5 pd=3 as=0.5 ps=3 w=1 l=0.15
X100 GNDA.t98 GNDA.t95 GNDA.t97 GNDA.t96 sky130_fd_pr__nfet_01v8 ad=1 pd=5 as=0 ps=0 w=2 l=0.6
X101 GNDA.t155 pfd_8_0.E.t4 pfd_8_0.QA.t2 GNDA.t154 sky130_fd_pr__nfet_01v8 ad=0.4 pd=2.8 as=0.2 ps=1.4 w=1 l=0.15
X102 a_9360_6440.t1 a_6490_4630.t2 GNDA.t34 sky130_fd_pr__res_xhigh_po_0p35 l=0.86
X103 pfd_8_0.F.t1 pfd_8_0.F_b.t3 a_870_640.t0 VDDA.t19 sky130_fd_pr__pfet_01v8 ad=0.8 pd=4.8 as=0.4 ps=2.4 w=2 l=0.15
X104 VDDA.t34 pfd_8_0.Reset.t3 a_1390_1400.t1 VDDA.t33 sky130_fd_pr__pfet_01v8 ad=0.8 pd=4.8 as=0.4 ps=2.4 w=2 l=0.15
X105 VDDA.t104 VDDA.t102 VDDA.t104 VDDA.t103 sky130_fd_pr__pfet_01v8 ad=0.625 pd=3 as=0 ps=0 w=2.5 l=0.5
X106 GNDA.t94 GNDA.t91 GNDA.t93 GNDA.t92 sky130_fd_pr__nfet_01v8 ad=1 pd=5 as=0 ps=0 w=2 l=0.6
X107 a_2530_190.t1 a_2350_1400.t3 VDDA.t42 VDDA.t41 sky130_fd_pr__pfet_01v8 ad=0.8 pd=4.8 as=0.8 ps=4.8 w=2 l=0.15
X108 GNDA.t57 a_6220_5810.t3 a_6220_5810.t4 GNDA.t56 sky130_fd_pr__nfet_01v8 ad=0.3125 pd=1.75 as=0.3125 ps=1.75 w=1.25 l=0.5
X109 GNDA.t63 a_6490_4630.t8 pfd_8_0.UP_input.t4 GNDA.t62 sky130_fd_pr__nfet_01v8 ad=0.125 pd=1 as=0.125 ps=1 w=0.5 l=0.15
X110 VDDA.t30 opamp_cell_4_0.n_right.t8 pfd_8_0.UP_input.t2 VDDA.t29 sky130_fd_pr__pfet_01v8 ad=0.25 pd=1.5 as=0.25 ps=1.5 w=1 l=0.15
X111 VDDA.t101 VDDA.t98 VDDA.t100 VDDA.t99 sky130_fd_pr__pfet_01v8 ad=1.25 pd=6 as=0 ps=0 w=2.5 l=0.5
X112 GNDA.t5 pfd_8_0.F_b.t4 pfd_8_0.F.t0 GNDA.t4 sky130_fd_pr__nfet_01v8 ad=0.4 pd=2.8 as=0.2 ps=1.4 w=1 l=0.15
X113 GNDA.t90 GNDA.t87 GNDA.t89 GNDA.t88 sky130_fd_pr__nfet_01v8 ad=1 pd=5 as=0 ps=0 w=2 l=0.6
X114 GNDA.t143 a_6220_5810.t11 a_6320_5840.t10 GNDA.t142 sky130_fd_pr__nfet_01v8 ad=0.3125 pd=1.75 as=0.3125 ps=1.75 w=1.25 l=0.5
X115 pfd_8_0.QB_b.t1 pfd_8_0.QB.t5 a_n30_640.t1 VDDA.t4 sky130_fd_pr__pfet_01v8 ad=0.8 pd=4.8 as=0.4 ps=2.4 w=2 l=0.15
X116 GNDA.t82 a_6200_5250.t6 a_6490_4630.t4 GNDA.t81 sky130_fd_pr__nfet_01v8 ad=0.125 pd=1 as=0.125 ps=1 w=0.5 l=0.15
X117 a_5970_4630.t0 opamp_cell_4_0.VIN+.t7 a_6490_4630.t1 VDDA.t14 sky130_fd_pr__pfet_01v8 ad=0.25 pd=1.5 as=0.25 ps=1.5 w=1 l=0.15
X118 VDDA.t62 opamp_cell_4_0.p_bias.t12 a_5970_4630.t3 VDDA.t61 sky130_fd_pr__pfet_01v8 ad=0.625 pd=3 as=0.625 ps=3 w=2.5 l=0.5
X119 VDDA.t127 pfd_8_0.Reset.t4 a_1390_640.t1 VDDA.t33 sky130_fd_pr__pfet_01v8 ad=0.8 pd=4.8 as=0.4 ps=2.4 w=2 l=0.15
X120 VDDA.t80 opamp_cell_4_0.p_bias.t1 opamp_cell_4_0.p_bias.t2 VDDA.t79 sky130_fd_pr__pfet_01v8 ad=0.625 pd=3 as=0.625 ps=3 w=2.5 l=0.5
X121 pfd_8_0.UP_input.t3 pfd_8_0.UP.t5 VDDA.t38 VDDA.t37 sky130_fd_pr__pfet_01v8 ad=1 pd=5 as=1 ps=5 w=2 l=0.15
X122 opamp_cell_4_0.n_right.t2 charge_pump_cell_6_0.UP_b.t0 GNDA.t22 sky130_fd_pr__res_xhigh_po_0p35 l=1.14
X123 VDDA.t97 VDDA.t94 VDDA.t96 VDDA.t95 sky130_fd_pr__pfet_01v8 ad=0.5 pd=3 as=0 ps=0 w=1 l=0.15
X124 a_6320_5840.t6 a_6320_5840.t4 a_6320_5840.t5 GNDA.t141 sky130_fd_pr__nfet_01v8 ad=0.25 pd=2 as=0 ps=0 w=0.5 l=0.15
X125 GNDA.t3 pfd_8_0.QB.t6 pfd_8_0.QB_b.t2 GNDA.t2 sky130_fd_pr__nfet_01v8 ad=0.4 pd=2.8 as=0.2 ps=1.4 w=1 l=0.15
X126 a_6320_5840.t12 a_6220_5810.t12 GNDA.t151 GNDA.t150 sky130_fd_pr__nfet_01v8 ad=0.3125 pd=1.75 as=0.3125 ps=1.75 w=1.25 l=0.5
X127 GNDA.t29 pfd_8_0.Reset.t5 pfd_8_0.F_b.t0 GNDA.t28 sky130_fd_pr__nfet_01v8 ad=0.4 pd=2.8 as=0.2 ps=1.4 w=1 l=0.15
X128 a_6320_5840.t3 a_6320_5840.t2 a_6320_5840.t3 GNDA.t23 sky130_fd_pr__nfet_01v8 ad=0.125 pd=1 as=0 ps=0 w=0.5 l=0.15
X129 VDDA.t93 VDDA.t91 VDDA.t93 VDDA.t92 sky130_fd_pr__pfet_01v8 ad=0.25 pd=1.5 as=0 ps=0 w=1 l=0.15
X130 a_6220_5810.t2 a_6220_5810.t1 GNDA.t59 GNDA.t58 sky130_fd_pr__nfet_01v8 ad=0.3125 pd=1.75 as=0.3125 ps=1.75 w=1.25 l=0.5
X131 pfd_8_0.E.t0 pfd_8_0.QA_b.t6 GNDA.t11 GNDA.t10 sky130_fd_pr__nfet_01v8 ad=0.2 pd=1.4 as=0.4 ps=2.8 w=1 l=0.15
X132 VDDA.t45 pfd_8_0.QA.t7 pfd_8_0.before_Reset.t2 VDDA.t44 sky130_fd_pr__pfet_01v8 ad=0.8 pd=4.8 as=0.4 ps=2.4 w=2 l=0.15
X133 a_n30_640.t0 F_VCO.t0 VDDA.t18 VDDA.t5 sky130_fd_pr__pfet_01v8 ad=0.4 pd=2.4 as=0.8 ps=4.8 w=2 l=0.15
X134 pfd_8_0.UP_PFD_b.t1 pfd_8_0.QA.t8 VDDA.t15 VDDA.t2 sky130_fd_pr__pfet_01v8 ad=1 pd=5 as=1 ps=5 w=2 l=0.15
X135 a_6490_4630.t3 a_6200_5250.t7 GNDA.t80 GNDA.t79 sky130_fd_pr__nfet_01v8 ad=0.125 pd=1 as=0.125 ps=1 w=0.5 l=0.15
X136 a_6490_4630.t0 opamp_cell_4_0.VIN+.t8 a_5970_4630.t1 VDDA.t43 sky130_fd_pr__pfet_01v8 ad=0.25 pd=1.5 as=0.25 ps=1.5 w=1 l=0.15
X137 VDDA.t126 pfd_8_0.E.t5 a_490_1400.t0 VDDA.t35 sky130_fd_pr__pfet_01v8 ad=0.8 pd=4.8 as=0.4 ps=2.4 w=2 l=0.15
X138 VDDA.t32 a_2200_190.t2 a_1870_190.t1 VDDA.t31 sky130_fd_pr__pfet_01v8 ad=0.8 pd=4.8 as=0.8 ps=4.8 w=2 l=0.15
X139 pfd_8_0.QA_b.t0 F_REF.t1 GNDA.t27 GNDA.t26 sky130_fd_pr__nfet_01v8 ad=0.2 pd=1.4 as=0.4 ps=2.8 w=1 l=0.15
X140 pfd_8_0.QB_b.t0 F_VCO.t1 GNDA.t52 GNDA.t51 sky130_fd_pr__nfet_01v8 ad=0.2 pd=1.4 as=0.4 ps=2.8 w=1 l=0.15
X141 a_490_640.t0 pfd_8_0.QB_b.t5 pfd_8_0.QB.t1 VDDA.t58 sky130_fd_pr__pfet_01v8 ad=0.4 pd=2.4 as=0.8 ps=4.8 w=2 l=0.15
X142 VDDA.t49 pfd_8_0.UP_input.t21 opamp_cell_4_0.VIN+.t2 VDDA.t48 sky130_fd_pr__pfet_01v8 ad=0.5 pd=2.5 as=0.5 ps=2.5 w=2 l=0.6
X143 GNDA.t75 a_2200_190.t3 a_1870_190.t0 GNDA.t74 sky130_fd_pr__nfet_01v8 ad=0.4 pd=2.8 as=0.4 ps=2.8 w=1 l=0.15
X144 a_6320_5840.t1 opamp_cell_4_0.VIN+.t9 opamp_cell_4_0.n_right.t0 GNDA.t14 sky130_fd_pr__nfet_01v8 ad=0.125 pd=1 as=0.125 ps=1 w=0.5 l=0.15
X145 VDDA.t51 opamp_cell_4_0.n_left.t7 opamp_cell_4_0.n_right.t3 VDDA.t50 sky130_fd_pr__pfet_01v8 ad=0.25 pd=1.5 as=0.25 ps=1.5 w=1 l=0.15
X146 pfd_8_0.QB.t2 pfd_8_0.QB_b.t6 GNDA.t149 GNDA.t148 sky130_fd_pr__nfet_01v8 ad=0.2 pd=1.4 as=0.4 ps=2.8 w=1 l=0.15
X147 pfd_8_0.DOWN_PFD_b.t0 pfd_8_0.QB.t7 VDDA.t3 VDDA.t2 sky130_fd_pr__pfet_01v8 ad=1 pd=5 as=1 ps=5 w=2 l=0.15
X148 pfd_8_0.UP.t0 pfd_8_0.UP_PFD_b.t3 GNDA.t78 GNDA.t77 sky130_fd_pr__nfet_01v8 ad=0.5 pd=3 as=0.5 ps=3 w=1 l=0.15
X149 pfd_8_0.DOWN_PFD_b.t2 pfd_8_0.QB.t8 GNDA.t132 GNDA.t131 sky130_fd_pr__nfet_01v8 ad=0.5 pd=3 as=0.5 ps=3 w=1 l=0.15
X150 pfd_8_0.E_b.t1 pfd_8_0.E.t6 GNDA.t46 GNDA.t45 sky130_fd_pr__nfet_01v8 ad=0.2 pd=1.4 as=0.4 ps=2.8 w=1 l=0.15
X151 opamp_cell_4_0.VIN+.t1 pfd_8_0.UP_input.t22 VDDA.t70 VDDA.t69 sky130_fd_pr__pfet_01v8 ad=0.5 pd=2.5 as=0.5 ps=2.5 w=2 l=0.6
X152 pfd_8_0.DOWN_b.t0 GNDA.t158 pfd_8_0.DOWN_PFD_b.t1 VDDA.t85 sky130_fd_pr__pfet_01v8 ad=1 pd=5 as=1 ps=5 w=2 l=0.15
R0 a_6200_5250.n5 a_6200_5250.n4 427.647
R1 a_6200_5250.n1 a_6200_5250.t6 321.334
R2 a_6200_5250.n4 a_6200_5250.n0 210.601
R3 a_6200_5250.n2 a_6200_5250.n1 208.868
R4 a_6200_5250.n3 a_6200_5250.t0 174.056
R5 a_6200_5250.n4 a_6200_5250.n3 152
R6 a_6200_5250.n1 a_6200_5250.t7 112.468
R7 a_6200_5250.n2 a_6200_5250.t2 112.468
R8 a_6200_5250.n3 a_6200_5250.n2 61.5894
R9 a_6200_5250.n0 a_6200_5250.t3 60.0005
R10 a_6200_5250.n0 a_6200_5250.t1 60.0005
R11 a_6200_5250.n5 a_6200_5250.t5 49.2505
R12 a_6200_5250.t4 a_6200_5250.n5 49.2505
R13 GNDA.n396 GNDA.n395 348175
R14 GNDA.n395 GNDA.n394 292776
R15 GNDA.n269 GNDA.t76 25257.7
R16 GNDA.n275 GNDA.n269 15376.3
R17 GNDA.n394 GNDA.t12 2083.03
R18 GNDA.t18 GNDA.t4 1939.79
R19 GNDA.t148 GNDA.t2 1939.79
R20 GNDA.n213 GNDA.n24 1860.65
R21 GNDA.t55 GNDA.t131 1845.16
R22 GNDA.t47 GNDA.t73 1372.04
R23 GNDA.t20 GNDA.n399 1253.76
R24 GNDA.n402 GNDA.n23 1230.11
R25 GNDA.n259 GNDA.n258 1186
R26 GNDA.n212 GNDA.n211 1186
R27 GNDA.n205 GNDA.n204 1186
R28 GNDA.n266 GNDA.n265 1186
R29 GNDA.n268 GNDA.n267 1170
R30 GNDA.n393 GNDA.t73 1064.52
R31 GNDA.n356 GNDA.t55 1064.52
R32 GNDA.n394 GNDA.n26 1052.76
R33 GNDA.t16 GNDA.n401 922.582
R34 GNDA.t74 GNDA.n400 922.582
R35 GNDA.n106 GNDA.t26 783.001
R36 GNDA.t12 GNDA.n393 780.645
R37 GNDA.n356 GNDA.t47 780.645
R38 GNDA.t131 GNDA.n23 780.645
R39 GNDA.n328 GNDA.n327 669.307
R40 GNDA.n330 GNDA.n46 669.307
R41 GNDA.n323 GNDA.n322 669.307
R42 GNDA.n320 GNDA.n50 669.307
R43 GNDA.n274 GNDA.n273 669.307
R44 GNDA.n277 GNDA.n276 669.307
R45 GNDA.n402 GNDA.t16 638.711
R46 GNDA.n401 GNDA.t74 638.711
R47 GNDA.n400 GNDA.t20 638.711
R48 GNDA.n399 GNDA.t28 638.711
R49 GNDA.t49 GNDA.n398 638.711
R50 GNDA.n398 GNDA.t53 638.711
R51 GNDA.t51 GNDA.n396 638.711
R52 GNDA.t146 GNDA.t45 601.333
R53 GNDA.t30 GNDA.t0 601.333
R54 GNDA.t127 GNDA.t137 593.865
R55 GNDA.t137 GNDA.t135 593.865
R56 GNDA.t135 GNDA.t96 593.865
R57 GNDA.t133 GNDA.t110 593.865
R58 GNDA.t24 GNDA.t133 593.865
R59 GNDA.t92 GNDA.t24 593.865
R60 GNDA.t104 GNDA.t6 593.865
R61 GNDA.t6 GNDA.t37 593.865
R62 GNDA.t37 GNDA.t88 593.865
R63 GNDA.n105 GNDA.n104 585.003
R64 GNDA.n398 GNDA.n397 585.003
R65 GNDA.n102 GNDA.n101 585.001
R66 GNDA.n100 GNDA.n86 585.001
R67 GNDA.n99 GNDA.n83 585.001
R68 GNDA.n80 GNDA.n25 585.001
R69 GNDA.n257 GNDA.n256 585.001
R70 GNDA.n214 GNDA.n213 585.001
R71 GNDA.n175 GNDA.n174 585.001
R72 GNDA.n75 GNDA.n72 585.001
R73 GNDA.n77 GNDA.n76 585.001
R74 GNDA.n393 GNDA.n392 585.001
R75 GNDA.n357 GNDA.n356 585.001
R76 GNDA.n362 GNDA.n23 585.001
R77 GNDA.n403 GNDA.n402 585.001
R78 GNDA.n401 GNDA.n19 585.001
R79 GNDA.n400 GNDA.n16 585.001
R80 GNDA.n399 GNDA.n13 585.001
R81 GNDA.n396 GNDA.n2 585.001
R82 GNDA.n272 GNDA.n270 585
R83 GNDA.n68 GNDA.n66 585
R84 GNDA.n54 GNDA.n51 585
R85 GNDA.n57 GNDA.n56 585
R86 GNDA.n49 GNDA.n48 585
R87 GNDA.n332 GNDA.n331 585
R88 GNDA.n31 GNDA.n30 585
R89 GNDA.n30 GNDA.n26 585
R90 GNDA.n34 GNDA.n33 585
R91 GNDA.n36 GNDA.n28 585
R92 GNDA.n38 GNDA.n37 585
R93 GNDA.n37 GNDA.n26 585
R94 GNDA.n375 GNDA.t158 566.966
R95 GNDA.n275 GNDA.t127 566.871
R96 GNDA.n324 GNDA.t96 566.871
R97 GNDA.t110 GNDA.n324 566.871
R98 GNDA.n329 GNDA.t92 566.871
R99 GNDA.n329 GNDA.t104 566.871
R100 GNDA.t88 GNDA.n26 566.871
R101 GNDA.t34 GNDA.n266 564.696
R102 GNDA.n269 GNDA.t22 534.24
R103 GNDA.t28 GNDA.t18 520.431
R104 GNDA.t4 GNDA.t49 520.431
R105 GNDA.t53 GNDA.t148 520.431
R106 GNDA.t2 GNDA.t51 520.431
R107 GNDA.t22 GNDA.t34 509.197
R108 GNDA.t76 GNDA.t152 425.334
R109 GNDA.n76 GNDA.t60 418
R110 GNDA.n175 GNDA.t77 344.668
R111 GNDA.t8 GNDA.n75 344.668
R112 GNDA.n325 GNDA.t103 336.329
R113 GNDA.n325 GNDA.t91 336.329
R114 GNDA.n52 GNDA.t109 336.329
R115 GNDA.n52 GNDA.t95 336.329
R116 GNDA.n39 GNDA.t87 320.7
R117 GNDA.n278 GNDA.t126 320.7
R118 GNDA.n269 GNDA.n268 309.736
R119 GNDA.n176 GNDA.t106 304.634
R120 GNDA.n260 GNDA.t119 304.634
R121 GNDA.n210 GNDA.t99 304.634
R122 GNDA.n206 GNDA.t112 304.634
R123 GNDA.n255 GNDA.t123 292.584
R124 GNDA.n215 GNDA.t115 292.584
R125 GNDA.t71 GNDA.n25 286
R126 GNDA.t15 GNDA.n99 286
R127 GNDA.n275 GNDA.n274 250.349
R128 GNDA.n276 GNDA.n275 250.349
R129 GNDA.n324 GNDA.n323 250.349
R130 GNDA.n324 GNDA.n50 250.349
R131 GNDA.n329 GNDA.n328 250.349
R132 GNDA.n330 GNDA.n329 250.349
R133 GNDA.n35 GNDA.n26 250.349
R134 GNDA.n265 GNDA.t108 245
R135 GNDA.n259 GNDA.t122 245
R136 GNDA.n211 GNDA.t102 245
R137 GNDA.n205 GNDA.t114 245
R138 GNDA.t152 GNDA.n175 227.333
R139 GNDA.n75 GNDA.t77 227.333
R140 GNDA.n76 GNDA.t8 227.333
R141 GNDA.n102 GNDA.n100 205.333
R142 GNDA.n262 GNDA.n178 204.201
R143 GNDA.n208 GNDA.n202 204.201
R144 GNDA.n209 GNDA.n201 204.201
R145 GNDA.n207 GNDA.n203 204.201
R146 GNDA.n261 GNDA.n179 204.201
R147 GNDA.n264 GNDA.n263 204.201
R148 GNDA.n3 GNDA.t3 198.058
R149 GNDA.n444 GNDA.t149 198.058
R150 GNDA.n432 GNDA.t5 198.058
R151 GNDA.n11 GNDA.t19 198.058
R152 GNDA.n131 GNDA.t46 198.058
R153 GNDA.n126 GNDA.t147 198.058
R154 GNDA.n96 GNDA.t1 198.058
R155 GNDA.n112 GNDA.t31 198.058
R156 GNDA.n99 GNDA.t71 198
R157 GNDA.n100 GNDA.t32 198
R158 GNDA.t41 GNDA.n102 198
R159 GNDA.n105 GNDA.t10 198
R160 GNDA.t154 GNDA.n105 198
R161 GNDA.n331 GNDA.n49 197
R162 GNDA.n56 GNDA.n51 197
R163 GNDA.n270 GNDA.n68 197
R164 GNDA.n34 GNDA.n30 197
R165 GNDA.n37 GNDA.n36 197
R166 GNDA.n327 GNDA.n326 185
R167 GNDA.n326 GNDA.n46 185
R168 GNDA.n322 GNDA.n321 185
R169 GNDA.n321 GNDA.n320 185
R170 GNDA.n273 GNDA.n67 185
R171 GNDA.n277 GNDA.n67 185
R172 GNDA.n31 GNDA.n29 185
R173 GNDA.n38 GNDA.n29 185
R174 GNDA.n327 GNDA.n325 166.63
R175 GNDA.n322 GNDA.n52 166.63
R176 GNDA.t32 GNDA.t15 161.333
R177 GNDA.t45 GNDA.t41 161.333
R178 GNDA.t10 GNDA.t146 161.333
R179 GNDA.t0 GNDA.t154 161.333
R180 GNDA.t26 GNDA.t30 161.333
R181 GNDA.n256 GNDA.t125 134.501
R182 GNDA.n214 GNDA.t118 134.501
R183 GNDA.n7 GNDA.t54 130.713
R184 GNDA.n106 GNDA.t27 130.001
R185 GNDA.n101 GNDA.t42 130.001
R186 GNDA.n86 GNDA.t33 130.001
R187 GNDA.n83 GNDA.t72 130.001
R188 GNDA.n80 GNDA.t61 130.001
R189 GNDA.n2 GNDA.t52 130.001
R190 GNDA.n13 GNDA.t29 130.001
R191 GNDA.n16 GNDA.t21 130.001
R192 GNDA.n19 GNDA.t75 130.001
R193 GNDA.n403 GNDA.t17 130.001
R194 GNDA.n103 GNDA.t11 130.001
R195 GNDA.n95 GNDA.t155 130.001
R196 GNDA.n8 GNDA.t50 130.001
R197 GNDA.n77 GNDA.t9 122.501
R198 GNDA.n72 GNDA.t78 122.501
R199 GNDA.n174 GNDA.t153 122.501
R200 GNDA.n362 GNDA.t132 122.501
R201 GNDA.n357 GNDA.t48 122.501
R202 GNDA.n392 GNDA.t13 122.501
R203 GNDA.n257 GNDA.t23 112.157
R204 GNDA.n183 GNDA.n182 97.8707
R205 GNDA.n187 GNDA.n186 97.8707
R206 GNDA.n191 GNDA.n190 97.8707
R207 GNDA.n195 GNDA.n194 97.8707
R208 GNDA.n200 GNDA.n199 97.8707
R209 GNDA.n204 GNDA.t39 97.7783
R210 GNDA.n266 GNDA.t107 94.9025
R211 GNDA.n258 GNDA.t120 94.9025
R212 GNDA.n287 GNDA.n62 92.2612
R213 GNDA.n280 GNDA.n65 92.2612
R214 GNDA.n314 GNDA.n293 92.2612
R215 GNDA.n308 GNDA.n296 92.2612
R216 GNDA.n336 GNDA.n335 92.2612
R217 GNDA.n343 GNDA.n342 92.2612
R218 GNDA.n326 GNDA.n47 91.3721
R219 GNDA.n334 GNDA.n45 91.3721
R220 GNDA.n334 GNDA.n333 91.3721
R221 GNDA.n321 GNDA.n55 91.3721
R222 GNDA.n292 GNDA.n53 91.3721
R223 GNDA.n292 GNDA.n58 91.3721
R224 GNDA.n271 GNDA.n67 90.7567
R225 GNDA.n32 GNDA.n29 90.7567
R226 GNDA.t39 GNDA.t141 89.1508
R227 GNDA.n212 GNDA.t116 86.275
R228 GNDA.n274 GNDA.n270 84.306
R229 GNDA.n276 GNDA.n68 84.306
R230 GNDA.n323 GNDA.n51 84.306
R231 GNDA.n56 GNDA.n50 84.306
R232 GNDA.n328 GNDA.n49 84.306
R233 GNDA.n331 GNDA.n330 84.306
R234 GNDA.n35 GNDA.n34 84.306
R235 GNDA.n36 GNDA.n35 84.306
R236 GNDA.n267 GNDA.t157 84.2543
R237 GNDA.n208 GNDA.n207 83.2005
R238 GNDA.n209 GNDA.n208 83.2005
R239 GNDA.n267 GNDA.t156 81.0543
R240 GNDA.n395 GNDA.n24 80.6672
R241 GNDA.t43 GNDA.t113 77.6476
R242 GNDA.t66 GNDA.t107 74.7717
R243 GNDA.t64 GNDA.t66 74.7717
R244 GNDA.t62 GNDA.t64 74.7717
R245 GNDA.t68 GNDA.t62 74.7717
R246 GNDA.t120 GNDA.t68 74.7717
R247 GNDA.n258 GNDA.n257 74.7717
R248 GNDA.t130 GNDA.t70 74.7717
R249 GNDA.t81 GNDA.t79 74.7717
R250 GNDA.t83 GNDA.t100 74.7717
R251 GNDA.n395 GNDA.n25 73.3338
R252 GNDA.t14 GNDA.t124 71.8959
R253 GNDA.t144 GNDA.t85 71.8959
R254 GNDA.n263 GNDA.n262 66.5605
R255 GNDA.n262 GNDA.n261 66.5605
R256 GNDA.t129 GNDA.t139 66.1443
R257 GNDA.n262 GNDA.n177 65.9634
R258 GNDA.n107 GNDA.n106 60.29
R259 GNDA.n101 GNDA.n89 60.29
R260 GNDA.n139 GNDA.n86 60.29
R261 GNDA.n146 GNDA.n83 60.29
R262 GNDA.n152 GNDA.n80 60.29
R263 GNDA.n404 GNDA.n403 60.29
R264 GNDA.n411 GNDA.n19 60.29
R265 GNDA.n417 GNDA.n16 60.29
R266 GNDA.n424 GNDA.n13 60.29
R267 GNDA.n452 GNDA.n2 60.29
R268 GNDA.n178 GNDA.t65 60.0005
R269 GNDA.n178 GNDA.t63 60.0005
R270 GNDA.n202 GNDA.t80 60.0005
R271 GNDA.n202 GNDA.t86 60.0005
R272 GNDA.n201 GNDA.t84 60.0005
R273 GNDA.n201 GNDA.t101 60.0005
R274 GNDA.t114 GNDA.n203 60.0005
R275 GNDA.n203 GNDA.t82 60.0005
R276 GNDA.n179 GNDA.t69 60.0005
R277 GNDA.n179 GNDA.t121 60.0005
R278 GNDA.t108 GNDA.n264 60.0005
R279 GNDA.n264 GNDA.t67 60.0005
R280 GNDA.n160 GNDA.n77 59.5478
R281 GNDA.n167 GNDA.n72 59.5478
R282 GNDA.n174 GNDA.n173 59.5478
R283 GNDA.n380 GNDA.n357 58.9809
R284 GNDA.n363 GNDA.n362 58.9809
R285 GNDA.n392 GNDA.n391 58.9809
R286 GNDA.n268 GNDA.t36 56.0165
R287 GNDA.n120 GNDA.n95 54.4005
R288 GNDA.n103 GNDA.n94 54.4005
R289 GNDA.n437 GNDA.n8 54.4005
R290 GNDA.n439 GNDA.n7 54.4005
R291 GNDA.t56 GNDA.t129 48.8894
R292 GNDA.t60 GNDA.n24 44.0005
R293 GNDA.t142 GNDA.t14 43.1378
R294 GNDA.t85 GNDA.t150 43.1378
R295 GNDA.n208 GNDA.n197 41.6005
R296 GNDA.n349 GNDA.n348 41.3005
R297 GNDA.n252 GNDA.n177 39.4985
R298 GNDA.t113 GNDA.t58 37.3861
R299 GNDA.t58 GNDA.t81 37.3861
R300 GNDA.n107 GNDA.n0 33.0991
R301 GNDA.n453 GNDA.n452 33.0991
R302 GNDA.n288 GNDA.n287 32.0005
R303 GNDA.n288 GNDA.n59 32.0005
R304 GNDA.n282 GNDA.n281 32.0005
R305 GNDA.n282 GNDA.n63 32.0005
R306 GNDA.n286 GNDA.n63 32.0005
R307 GNDA.n315 GNDA.n60 32.0005
R308 GNDA.n313 GNDA.n294 32.0005
R309 GNDA.n309 GNDA.n294 32.0005
R310 GNDA.n309 GNDA.n308 32.0005
R311 GNDA.n307 GNDA.n297 32.0005
R312 GNDA.n303 GNDA.n297 32.0005
R313 GNDA.n302 GNDA.n301 32.0005
R314 GNDA.n301 GNDA.n44 32.0005
R315 GNDA.n337 GNDA.n42 32.0005
R316 GNDA.n341 GNDA.n42 32.0005
R317 GNDA.n344 GNDA.n40 32.0005
R318 GNDA.n173 GNDA.n172 32.0005
R319 GNDA.n172 GNDA.n70 32.0005
R320 GNDA.n168 GNDA.n70 32.0005
R321 GNDA.n166 GNDA.n165 32.0005
R322 GNDA.n165 GNDA.n73 32.0005
R323 GNDA.n161 GNDA.n73 32.0005
R324 GNDA.n159 GNDA.n158 32.0005
R325 GNDA.n158 GNDA.n78 32.0005
R326 GNDA.n154 GNDA.n78 32.0005
R327 GNDA.n154 GNDA.n153 32.0005
R328 GNDA.n151 GNDA.n81 32.0005
R329 GNDA.n147 GNDA.n81 32.0005
R330 GNDA.n145 GNDA.n144 32.0005
R331 GNDA.n144 GNDA.n84 32.0005
R332 GNDA.n140 GNDA.n84 32.0005
R333 GNDA.n138 GNDA.n137 32.0005
R334 GNDA.n137 GNDA.n87 32.0005
R335 GNDA.n133 GNDA.n132 32.0005
R336 GNDA.n132 GNDA.n131 32.0005
R337 GNDA.n131 GNDA.n90 32.0005
R338 GNDA.n127 GNDA.n90 32.0005
R339 GNDA.n127 GNDA.n126 32.0005
R340 GNDA.n126 GNDA.n125 32.0005
R341 GNDA.n125 GNDA.n92 32.0005
R342 GNDA.n119 GNDA.n118 32.0005
R343 GNDA.n118 GNDA.n96 32.0005
R344 GNDA.n114 GNDA.n96 32.0005
R345 GNDA.n114 GNDA.n113 32.0005
R346 GNDA.n113 GNDA.n112 32.0005
R347 GNDA.n112 GNDA.n98 32.0005
R348 GNDA.n108 GNDA.n98 32.0005
R349 GNDA.n252 GNDA.n251 32.0005
R350 GNDA.n251 GNDA.n250 32.0005
R351 GNDA.n250 GNDA.n181 32.0005
R352 GNDA.n246 GNDA.n181 32.0005
R353 GNDA.n246 GNDA.n245 32.0005
R354 GNDA.n245 GNDA.n244 32.0005
R355 GNDA.n244 GNDA.n185 32.0005
R356 GNDA.n240 GNDA.n185 32.0005
R357 GNDA.n240 GNDA.n239 32.0005
R358 GNDA.n239 GNDA.n238 32.0005
R359 GNDA.n238 GNDA.n189 32.0005
R360 GNDA.n234 GNDA.n189 32.0005
R361 GNDA.n234 GNDA.n233 32.0005
R362 GNDA.n233 GNDA.n232 32.0005
R363 GNDA.n232 GNDA.n193 32.0005
R364 GNDA.n228 GNDA.n227 32.0005
R365 GNDA.n227 GNDA.n226 32.0005
R366 GNDA.n226 GNDA.n198 32.0005
R367 GNDA.n221 GNDA.n198 32.0005
R368 GNDA.n221 GNDA.n220 32.0005
R369 GNDA.n220 GNDA.n219 32.0005
R370 GNDA.n390 GNDA.n352 32.0005
R371 GNDA.n386 GNDA.n352 32.0005
R372 GNDA.n386 GNDA.n385 32.0005
R373 GNDA.n385 GNDA.n384 32.0005
R374 GNDA.n384 GNDA.n354 32.0005
R375 GNDA.n380 GNDA.n354 32.0005
R376 GNDA.n380 GNDA.n379 32.0005
R377 GNDA.n379 GNDA.n378 32.0005
R378 GNDA.n378 GNDA.n358 32.0005