* PEX produced on Mon Feb 24 09:44:57 AM CET 2025 using /foss/tools/osic-multitool/iic-pex.sh with m=3 and s=1
* NGSPICE file created from pfd_cp_lf_magic_3.ext - technology: sky130A

.subckt pfd_cp_lf_magic_3 V_OUT VDDA F_REF F_VCO
X0 V_OUT.t99 a_6200_5250.t2 a_6200_5250.t3 V_OUT.t98 sky130_fd_pr__nfet_01v8 ad=0.125 pd=1 as=0.125 ps=1 w=0.5 l=0.15
X1 a_5970_4630.t10 opamp_cell_4_0.VIN- a_6200_5250.t5 VDDA.t117 sky130_fd_pr__pfet_01v8 ad=0.25 pd=1.5 as=0.25 ps=1.5 w=1 l=0.15
X2 pfd_8_0.DOWN_b.t0 VDDA.t130 pfd_8_0.DOWN_PFD_b.t1 V_OUT.t1 sky130_fd_pr__nfet_01v8 ad=0.5 pd=3 as=0.5 ps=3 w=1 l=0.15
X3 a_870_1400.t1 pfd_8_0.QA_b.t3 VDDA.t10 VDDA.t9 sky130_fd_pr__pfet_01v8 ad=0.4 pd=2.4 as=0.8 ps=4.8 w=2 l=0.15
X4 pfd_8_0.DOWN.t0 pfd_8_0.DOWN_b.t2 VDDA.t108 VDDA.t30 sky130_fd_pr__pfet_01v8 ad=1 pd=5 as=1 ps=5 w=2 l=0.15
X5 V_OUT.t143 V_OUT.t141 V_OUT.t143 V_OUT.t142 sky130_fd_pr__nfet_01v8 ad=0.5 pd=2.5 as=0 ps=0 w=2 l=0.6
X6 VDDA.t8 pfd_8_0.UP_input.t13 opamp_cell_4_0.VIN+.t5 VDDA.t7 sky130_fd_pr__pfet_01v8 ad=0.5 pd=2.5 as=0.5 ps=2.5 w=2 l=0.6
X7 opamp_cell_4_0.n_right.t1 opamp_cell_4_0.VIN+.t6 a_6320_5840.t1 V_OUT.t152 sky130_fd_pr__nfet_01v8 ad=0.125 pd=1 as=0.125 ps=1 w=0.5 l=0.15
X8 opamp_cell_4_0.n_right.t3 opamp_cell_4_0.n_left.t6 VDDA.t105 VDDA.t104 sky130_fd_pr__pfet_01v8 ad=0.25 pd=1.5 as=0.25 ps=1.5 w=1 l=0.15
X9 pfd_8_0.UP_input.t7 opamp_cell_4_0.n_right.t5 VDDA.t95 VDDA.t94 sky130_fd_pr__pfet_01v8 ad=0.25 pd=1.5 as=0.25 ps=1.5 w=1 l=0.15
X10 pfd_8_0.UP_input.t11 a_6490_4630.t5 V_OUT.t78 V_OUT.t77 sky130_fd_pr__nfet_01v8 ad=0.125 pd=1 as=0.125 ps=1 w=0.5 l=0.15
X11 a_2350_1400.t1 pfd_8_0.before_Reset.t3 V_OUT.t80 V_OUT.t79 sky130_fd_pr__nfet_01v8 ad=0.4 pd=2.8 as=0.4 ps=2.8 w=1 l=0.15
X12 pfd_8_0.DOWN.t1 pfd_8_0.DOWN_b.t3 V_OUT.t160 V_OUT.t159 sky130_fd_pr__nfet_01v8 ad=0.5 pd=3 as=0.5 ps=3 w=1 l=0.15
X13 VDDA.t5 opamp_cell_4_0.p_bias.t6 opamp_cell_4_0.p_bias.t7 VDDA.t4 sky130_fd_pr__pfet_01v8 ad=0.625 pd=3 as=0.625 ps=3 w=2.5 l=0.5
X14 a_n30_1400.t1 F_REF.t0 VDDA.t97 VDDA.t96 sky130_fd_pr__pfet_01v8 ad=0.4 pd=2.4 as=0.8 ps=4.8 w=2 l=0.15
X15 V_OUT.t29 pfd_8_0.QA.t3 pfd_8_0.QA_b.t1 V_OUT.t28 sky130_fd_pr__nfet_01v8 ad=0.4 pd=2.8 as=0.2 ps=1.4 w=1 l=0.15
X16 a_6200_5250.t1 a_6200_5250.t0 V_OUT.t97 V_OUT.t96 sky130_fd_pr__nfet_01v8 ad=0.125 pd=1 as=0.125 ps=1 w=0.5 l=0.15
X17 a_6200_5250.t4 opamp_cell_4_0.VIN- a_5970_4630.t9 VDDA.t116 sky130_fd_pr__pfet_01v8 ad=0.25 pd=1.5 as=0.25 ps=1.5 w=1 l=0.15
X18 VDDA.t16 opamp_cell_4_0.p_bias.t9 a_5970_4630.t2 VDDA.t15 sky130_fd_pr__pfet_01v8 ad=0.625 pd=3 as=0.625 ps=3 w=2.5 l=0.5
X19 VDDA.t77 VDDA.t74 VDDA.t76 VDDA.t75 sky130_fd_pr__pfet_01v8 ad=1 pd=5 as=0 ps=0 w=2 l=0.6
X20 pfd_8_0.DOWN_input.t0 pfd_8_0.DOWN_b.t4 pfd_8_0.I_IN.t4 VDDA.t19 sky130_fd_pr__pfet_01v8 ad=1 pd=5 as=1 ps=5 w=2 l=0.15
X21 VDDA.t73 VDDA.t71 VDDA.t73 VDDA.t72 sky130_fd_pr__pfet_01v8 ad=0.5 pd=2.5 as=0 ps=0 w=2 l=0.6
X22 VDDA.t3 pfd_8_0.UP_input.t14 V_OUT.t0 VDDA.t2 sky130_fd_pr__pfet_01v8 ad=0.5 pd=2.5 as=0.5 ps=2.5 w=2 l=0.6
X23 a_1910_2020.t0 pfd_8_0.QB.t3 V_OUT.t65 V_OUT.t64 sky130_fd_pr__nfet_01v8 ad=0.2 pd=1.4 as=0.4 ps=2.8 w=1 l=0.15
X24 a_6220_5810.t7 a_6220_5810.t6 V_OUT.t62 V_OUT.t61 sky130_fd_pr__nfet_01v8 ad=0.3125 pd=1.75 as=0.3125 ps=1.75 w=1.25 l=0.5
X25 V_OUT.t14 pfd_8_0.DOWN_input.t3 V_OUT.t14 V_OUT.t13 sky130_fd_pr__nfet_01v8 ad=0.5 pd=2.5 as=0 ps=0 w=2 l=0.6
X26 pfd_8_0.UP.t0 pfd_8_0.UP_PFD_b.t2 VDDA.t129 VDDA.t115 sky130_fd_pr__pfet_01v8 ad=1 pd=5 as=1 ps=5 w=2 l=0.15
X27 a_6320_5840.t12 a_6220_5810.t9 V_OUT.t147 V_OUT.t146 sky130_fd_pr__nfet_01v8 ad=0.3125 pd=1.75 as=0.3125 ps=1.75 w=1.25 l=0.5
X28 pfd_8_0.UP_input.t3 pfd_8_0.UP.t2 pfd_8_0.UP_input.t2 V_OUT.t46 sky130_fd_pr__nfet_01v8 ad=0.5 pd=3 as=0 ps=0 w=1 l=0.15
X29 pfd_8_0.QA.t2 pfd_8_0.QA_b.t4 V_OUT.t19 V_OUT.t18 sky130_fd_pr__nfet_01v8 ad=0.2 pd=1.4 as=0.4 ps=2.8 w=1 l=0.15
X30 a_5970_4630.t8 opamp_cell_4_0.p_bias.t10 VDDA.t79 VDDA.t78 sky130_fd_pr__pfet_01v8 ad=0.625 pd=3 as=0.625 ps=3 w=2.5 l=0.5
X31 pfd_8_0.DOWN_input.t2 pfd_8_0.DOWN.t2 pfd_8_0.I_IN.t5 V_OUT.t15 sky130_fd_pr__nfet_01v8 ad=0.5 pd=3 as=0.5 ps=3 w=1 l=0.15
X32 V_OUT.t12 pfd_8_0.I_IN.t6 opamp_cell_4_0.VIN+.t0 V_OUT.t11 sky130_fd_pr__nfet_01v8 ad=0.5 pd=2.5 as=0.5 ps=2.5 w=2 l=0.6
X33 a_1390_1400.t1 pfd_8_0.E.t3 pfd_8_0.E_b.t1 VDDA.t112 sky130_fd_pr__pfet_01v8 ad=0.4 pd=2.4 as=0.8 ps=4.8 w=2 l=0.15
X34 a_870_640.t1 pfd_8_0.QB_b.t3 VDDA.t18 VDDA.t9 sky130_fd_pr__pfet_01v8 ad=0.4 pd=2.4 as=0.8 ps=4.8 w=2 l=0.15
X35 VDDA.t70 VDDA.t67 VDDA.t69 VDDA.t68 sky130_fd_pr__pfet_01v8 ad=0.5 pd=3 as=0 ps=0 w=1 l=0.15
X36 V_OUT.t9 loop_filter_2_0.R1_C1.t0 V_OUT.t8 sky130_fd_pr__res_xhigh_po_0p35 l=7.52
X37 VDDA.t110 a_2530_190.t2 a_2200_190.t0 VDDA.t109 sky130_fd_pr__pfet_01v8 ad=0.8 pd=4.8 as=0.8 ps=4.8 w=2 l=0.15
X38 V_OUT.t140 V_OUT.t138 V_OUT.t140 V_OUT.t139 sky130_fd_pr__nfet_01v8 ad=0.3125 pd=1.75 as=0 ps=0 w=1.25 l=0.5
X39 V_OUT.t137 V_OUT.t134 V_OUT.t136 V_OUT.t135 sky130_fd_pr__nfet_01v8 ad=0.25 pd=2 as=0 ps=0 w=0.5 l=0.15
X40 opamp_cell_4_0.p_bias.t5 opamp_cell_4_0.p_bias.t4 VDDA.t85 VDDA.t84 sky130_fd_pr__pfet_01v8 ad=0.625 pd=3 as=0.625 ps=3 w=2.5 l=0.5
X41 VDDA.t66 VDDA.t64 VDDA.t66 VDDA.t65 sky130_fd_pr__pfet_01v8 ad=0.5 pd=2.5 as=0 ps=0 w=2 l=0.6
X42 V_OUT.t70 pfd_8_0.UP_input.t15 VDDA.t101 VDDA.t100 sky130_fd_pr__pfet_01v8 ad=0.5 pd=2.5 as=0.5 ps=2.5 w=2 l=0.6
X43 pfd_8_0.DOWN_input.t1 pfd_8_0.DOWN_b.t5 V_OUT.t33 V_OUT.t32 sky130_fd_pr__nfet_01v8 ad=0.5 pd=3 as=0.5 ps=3 w=1 l=0.15
X44 V_OUT.t162 a_2530_190.t3 a_2200_190.t1 V_OUT.t161 sky130_fd_pr__nfet_01v8 ad=0.4 pd=2.8 as=0.4 ps=2.8 w=1 l=0.15
X45 pfd_8_0.F.t1 pfd_8_0.QB_b.t4 V_OUT.t59 V_OUT.t58 sky130_fd_pr__nfet_01v8 ad=0.2 pd=1.4 as=0.4 ps=2.8 w=1 l=0.15
X46 V_OUT.t133 V_OUT.t130 V_OUT.t132 V_OUT.t131 sky130_fd_pr__nfet_01v8 ad=0.625 pd=3.5 as=0 ps=0 w=1.25 l=0.5
X47 pfd_8_0.UP_input.t16 a_9360_6440.t1 sky130_fd_pr__cap_mim_m3_1 l=10 w=10
X48 V_OUT.t31 pfd_8_0.DOWN_input.t4 V_OUT.t31 V_OUT.t30 sky130_fd_pr__nfet_01v8 ad=0.5 pd=2.5 as=0 ps=0 w=2 l=0.6
X49 pfd_8_0.UP_b.t1 pfd_8_0.UP.t3 V_OUT.t149 V_OUT.t148 sky130_fd_pr__nfet_01v8 ad=0.5 pd=3 as=0.5 ps=3 w=1 l=0.15
X50 V_OUT.t151 pfd_8_0.E_b.t3 pfd_8_0.E.t2 V_OUT.t150 sky130_fd_pr__nfet_01v8 ad=0.4 pd=2.8 as=0.2 ps=1.4 w=1 l=0.15
X51 V_OUT.t50 a_6220_5810.t10 a_6320_5840.t4 V_OUT.t49 sky130_fd_pr__nfet_01v8 ad=0.3125 pd=1.75 as=0.3125 ps=1.75 w=1.25 l=0.5
X52 a_1390_640.t0 pfd_8_0.F.t3 pfd_8_0.F_b.t1 VDDA.t112 sky130_fd_pr__pfet_01v8 ad=0.4 pd=2.4 as=0.8 ps=4.8 w=2 l=0.15
X53 a_2350_1400.t0 pfd_8_0.before_Reset.t4 VDDA.t107 VDDA.t106 sky130_fd_pr__pfet_01v8 ad=0.8 pd=4.8 as=0.8 ps=4.8 w=2 l=0.15
X54 opamp_cell_4_0.VIN+.t1 pfd_8_0.I_IN.t7 V_OUT.t45 V_OUT.t44 sky130_fd_pr__nfet_01v8 ad=0.5 pd=2.5 as=0.5 ps=2.5 w=2 l=0.6
X55 V_OUT.t17 a_6220_5810.t4 a_6220_5810.t5 V_OUT.t16 sky130_fd_pr__nfet_01v8 ad=0.3125 pd=1.75 as=0.3125 ps=1.75 w=1.25 l=0.5
X56 V_OUT.t129 V_OUT.t127 V_OUT.t129 V_OUT.t128 sky130_fd_pr__nfet_01v8 ad=0.125 pd=1 as=0 ps=0 w=0.5 l=0.15
X57 a_5970_4630.t7 a_5970_4630.t6 a_5970_4630.t7 VDDA.t35 sky130_fd_pr__pfet_01v8 ad=0.25 pd=1.5 as=0 ps=0 w=1 l=0.15
X58 pfd_8_0.F_b.t2 pfd_8_0.F.t4 V_OUT.t84 V_OUT.t83 sky130_fd_pr__nfet_01v8 ad=0.2 pd=1.4 as=0.4 ps=2.8 w=1 l=0.15
X59 VDDA.t83 pfd_8_0.UP_input.t17 V_OUT.t63 VDDA.t82 sky130_fd_pr__pfet_01v8 ad=0.5 pd=2.5 as=0.5 ps=2.5 w=2 l=0.6
X60 V_OUT.t163 loop_filter_2_0.R1_C1.t1 sky130_fd_pr__cap_mim_m3_1 l=60 w=69.8
X61 VDDA.t27 pfd_8_0.F.t5 a_490_640.t0 VDDA.t26 sky130_fd_pr__pfet_01v8 ad=0.8 pd=4.8 as=0.4 ps=2.4 w=2 l=0.15
X62 VDDA.t63 VDDA.t61 VDDA.t63 VDDA.t62 sky130_fd_pr__pfet_01v8 ad=0.25 pd=1.5 as=0 ps=0 w=1 l=0.15
X63 V_OUT.t126 V_OUT.t124 V_OUT.t126 V_OUT.t125 sky130_fd_pr__nfet_01v8 ad=0.5 pd=2.5 as=0 ps=0 w=2 l=0.6
X64 pfd_8_0.QA_b.t0 pfd_8_0.QA.t4 a_n30_1400.t0 VDDA.t17 sky130_fd_pr__pfet_01v8 ad=0.8 pd=4.8 as=0.4 ps=2.4 w=2 l=0.15
X65 V_OUT.t123 V_OUT.t121 V_OUT.t123 V_OUT.t122 sky130_fd_pr__nfet_01v8 ad=0.125 pd=1 as=0 ps=0 w=0.5 l=0.15
X66 pfd_8_0.UP_input.t18 charge_pump_cell_6_0.UP_b.t0 sky130_fd_pr__cap_mim_m3_1 l=16 w=13.9
X67 V_OUT.t27 pfd_8_0.F.t6 pfd_8_0.QB.t0 V_OUT.t26 sky130_fd_pr__nfet_01v8 ad=0.4 pd=2.8 as=0.2 ps=1.4 w=1 l=0.15
X68 V_OUT.t120 V_OUT.t118 V_OUT.t120 V_OUT.t119 sky130_fd_pr__nfet_01v8 ad=0.5 pd=2.5 as=0 ps=0 w=2 l=0.6
X69 pfd_8_0.before_Reset.t1 pfd_8_0.QB.t4 VDDA.t87 VDDA.t86 sky130_fd_pr__pfet_01v8 ad=0.4 pd=2.4 as=0.805 ps=5 w=2 l=0.15
X70 V_OUT.t76 a_6490_4630.t6 pfd_8_0.UP_input.t10 V_OUT.t75 sky130_fd_pr__nfet_01v8 ad=0.125 pd=1 as=0.125 ps=1 w=0.5 l=0.15
X71 VDDA.t93 opamp_cell_4_0.n_right.t6 pfd_8_0.UP_input.t6 VDDA.t92 sky130_fd_pr__pfet_01v8 ad=0.25 pd=1.5 as=0.25 ps=1.5 w=1 l=0.15
X72 opamp_cell_4_0.VIN+.t4 pfd_8_0.UP_input.t19 VDDA.t99 VDDA.t98 sky130_fd_pr__pfet_01v8 ad=0.5 pd=2.5 as=0.5 ps=2.5 w=2 l=0.6
X73 pfd_8_0.UP_input.t1 pfd_8_0.UP_b.t2 pfd_8_0.UP_input.t0 VDDA.t19 sky130_fd_pr__pfet_01v8 ad=1 pd=5 as=0 ps=0 w=2 l=0.15
X74 a_490_1400.t1 pfd_8_0.QA_b.t5 pfd_8_0.QA.t1 VDDA.t124 sky130_fd_pr__pfet_01v8 ad=0.4 pd=2.4 as=0.8 ps=4.8 w=2 l=0.15
X75 V_OUT.t55 pfd_8_0.UP_input.t20 VDDA.t40 VDDA.t39 sky130_fd_pr__pfet_01v8 ad=0.5 pd=2.5 as=0.5 ps=2.5 w=2 l=0.6
X76 V_OUT.t21 pfd_8_0.Reset.t2 pfd_8_0.E_b.t0 V_OUT.t20 sky130_fd_pr__nfet_01v8 ad=0.4 pd=2.8 as=0.2 ps=1.4 w=1 l=0.15
X77 a_2530_190.t1 a_2350_1400.t2 V_OUT.t69 V_OUT.t68 sky130_fd_pr__nfet_01v8 ad=0.4 pd=2.8 as=0.4 ps=2.8 w=1 l=0.15
X78 VDDA.t42 opamp_cell_4_0.n_left.t2 opamp_cell_4_0.n_left.t3 VDDA.t41 sky130_fd_pr__pfet_01v8 ad=0.25 pd=1.5 as=0.25 ps=1.5 w=1 l=0.15
X79 a_6320_5840.t11 opamp_cell_4_0.VIN- opamp_cell_4_0.n_left.t5 V_OUT.t145 sky130_fd_pr__nfet_01v8 ad=0.125 pd=1 as=0.125 ps=1 w=0.5 l=0.15
X80 V_OUT.t89 pfd_8_0.I_IN.t2 pfd_8_0.I_IN.t3 V_OUT.t88 sky130_fd_pr__nfet_01v8 ad=0.5 pd=2.5 as=0.5 ps=2.5 w=2 l=0.6
X81 pfd_8_0.E.t0 pfd_8_0.E_b.t4 a_870_1400.t0 VDDA.t6 sky130_fd_pr__pfet_01v8 ad=0.8 pd=4.8 as=0.4 ps=2.4 w=2 l=0.15
X82 pfd_8_0.UP_b.t0 pfd_8_0.UP.t4 VDDA.t31 VDDA.t30 sky130_fd_pr__pfet_01v8 ad=1 pd=5 as=1 ps=5 w=2 l=0.15
X83 a_5970_4630.t5 a_5970_4630.t3 a_5970_4630.t4 VDDA.t34 sky130_fd_pr__pfet_01v8 ad=0.5 pd=3 as=0 ps=0 w=1 l=0.15
X84 V_OUT.t117 V_OUT.t114 V_OUT.t116 V_OUT.t115 sky130_fd_pr__nfet_01v8 ad=0.25 pd=2 as=0 ps=0 w=0.5 l=0.15
X85 pfd_8_0.DOWN_input.t5 charge_pump_cell_6_0.DOWN.t0 sky130_fd_pr__cap_mim_m3_1 l=2.6 w=3.8
X86 VDDA.t23 a_1870_190.t2 pfd_8_0.Reset.t0 VDDA.t22 sky130_fd_pr__pfet_01v8 ad=0.8 pd=4.8 as=0.8 ps=4.8 w=2 l=0.15
X87 pfd_8_0.UP_input.t9 a_6490_4630.t7 V_OUT.t74 V_OUT.t73 sky130_fd_pr__nfet_01v8 ad=0.125 pd=1 as=0.125 ps=1 w=0.5 l=0.15
X88 pfd_8_0.UP_input.t5 opamp_cell_4_0.n_right.t7 VDDA.t91 VDDA.t90 sky130_fd_pr__pfet_01v8 ad=0.25 pd=1.5 as=0.25 ps=1.5 w=1 l=0.15
X89 V_OUT.t42 a_1870_190.t3 pfd_8_0.Reset.t1 V_OUT.t41 sky130_fd_pr__nfet_01v8 ad=0.4 pd=2.8 as=0.4 ps=2.8 w=1 l=0.15
X90 VDDA.t60 VDDA.t57 VDDA.t59 VDDA.t58 sky130_fd_pr__pfet_01v8 ad=1 pd=5 as=0 ps=0 w=2 l=0.6
X91 opamp_cell_4_0.p_bias.t3 opamp_cell_4_0.p_bias.t2 VDDA.t29 VDDA.t28 sky130_fd_pr__pfet_01v8 ad=0.625 pd=3 as=0.625 ps=3 w=2.5 l=0.5
X92 pfd_8_0.I_IN.t1 pfd_8_0.I_IN.t0 V_OUT.t67 V_OUT.t66 sky130_fd_pr__nfet_01v8 ad=0.5 pd=2.5 as=0.5 ps=2.5 w=2 l=0.6
X93 opamp_cell_4_0.p_bias.t8 a_6220_5810.t8 V_OUT.t156 sky130_fd_pr__res_xhigh_po_5p73 l=1
X94 opamp_cell_4_0.n_left.t1 opamp_cell_4_0.n_left.t0 VDDA.t103 VDDA.t102 sky130_fd_pr__pfet_01v8 ad=0.25 pd=1.5 as=0.25 ps=1.5 w=1 l=0.15
X95 V_OUT.t108 V_OUT.t109 sky130_fd_pr__cap_mim_m3_1 l=60 w=13.8
X96 opamp_cell_4_0.n_left.t4 opamp_cell_4_0.VIN- a_6320_5840.t10 V_OUT.t144 sky130_fd_pr__nfet_01v8 ad=0.125 pd=1 as=0.125 ps=1 w=0.5 l=0.15
X97 a_5970_4630.t1 opamp_cell_4_0.p_bias.t11 VDDA.t14 VDDA.t13 sky130_fd_pr__pfet_01v8 ad=0.625 pd=3 as=0.625 ps=3 w=2.5 l=0.5
X98 pfd_8_0.before_Reset.t0 pfd_8_0.QA.t5 a_1910_2020.t1 V_OUT.t10 sky130_fd_pr__nfet_01v8 ad=0.4 pd=2.8 as=0.2 ps=1.4 w=1 l=0.15
X99 pfd_8_0.UP_PFD_b.t1 pfd_8_0.QA.t6 V_OUT.t35 V_OUT.t34 sky130_fd_pr__nfet_01v8 ad=0.5 pd=3 as=0.5 ps=3 w=1 l=0.15
X100 V_OUT.t113 V_OUT.t110 V_OUT.t112 V_OUT.t111 sky130_fd_pr__nfet_01v8 ad=1 pd=5 as=0 ps=0 w=2 l=0.6
X101 V_OUT.t57 pfd_8_0.E.t4 pfd_8_0.QA.t0 V_OUT.t56 sky130_fd_pr__nfet_01v8 ad=0.4 pd=2.8 as=0.2 ps=1.4 w=1 l=0.15
X102 a_9360_6440.t0 a_6490_4630.t2 V_OUT.t60 sky130_fd_pr__res_xhigh_po_0p35 l=0.86
X103 pfd_8_0.F.t0 pfd_8_0.F_b.t3 a_870_640.t0 VDDA.t6 sky130_fd_pr__pfet_01v8 ad=0.8 pd=4.8 as=0.4 ps=2.4 w=2 l=0.15
X104 VDDA.t21 pfd_8_0.Reset.t3 a_1390_1400.t0 VDDA.t20 sky130_fd_pr__pfet_01v8 ad=0.8 pd=4.8 as=0.4 ps=2.4 w=2 l=0.15
X105 VDDA.t56 VDDA.t54 VDDA.t56 VDDA.t55 sky130_fd_pr__pfet_01v8 ad=0.625 pd=3 as=0 ps=0 w=2.5 l=0.5
X106 V_OUT.t107 V_OUT.t104 V_OUT.t106 V_OUT.t105 sky130_fd_pr__nfet_01v8 ad=1 pd=5 as=0 ps=0 w=2 l=0.6
X107 a_2530_190.t0 a_2350_1400.t3 VDDA.t25 VDDA.t24 sky130_fd_pr__pfet_01v8 ad=0.8 pd=4.8 as=0.8 ps=4.8 w=2 l=0.15
X108 V_OUT.t91 a_6220_5810.t2 a_6220_5810.t3 V_OUT.t90 sky130_fd_pr__nfet_01v8 ad=0.3125 pd=1.75 as=0.3125 ps=1.75 w=1.25 l=0.5
X109 V_OUT.t72 a_6490_4630.t8 pfd_8_0.UP_input.t8 V_OUT.t71 sky130_fd_pr__nfet_01v8 ad=0.125 pd=1 as=0.125 ps=1 w=0.5 l=0.15
X110 VDDA.t89 opamp_cell_4_0.n_right.t8 pfd_8_0.UP_input.t4 VDDA.t88 sky130_fd_pr__pfet_01v8 ad=0.25 pd=1.5 as=0.25 ps=1.5 w=1 l=0.15
X111 VDDA.t53 VDDA.t50 VDDA.t52 VDDA.t51 sky130_fd_pr__pfet_01v8 ad=1.25 pd=6 as=0 ps=0 w=2.5 l=0.5
X112 V_OUT.t86 pfd_8_0.F_b.t4 pfd_8_0.F.t2 V_OUT.t85 sky130_fd_pr__nfet_01v8 ad=0.4 pd=2.8 as=0.2 ps=1.4 w=1 l=0.15
X113 V_OUT.t103 V_OUT.t100 V_OUT.t102 V_OUT.t101 sky130_fd_pr__nfet_01v8 ad=1 pd=5 as=0 ps=0 w=2 l=0.6
X114 V_OUT.t5 a_6220_5810.t11 a_6320_5840.t0 V_OUT.t4 sky130_fd_pr__nfet_01v8 ad=0.3125 pd=1.75 as=0.3125 ps=1.75 w=1.25 l=0.5
X115 pfd_8_0.QB_b.t0 pfd_8_0.QB.t5 a_n30_640.t0 VDDA.t17 sky130_fd_pr__pfet_01v8 ad=0.8 pd=4.8 as=0.4 ps=2.4 w=2 l=0.15
X116 V_OUT.t95 a_6200_5250.t6 a_6490_4630.t4 V_OUT.t94 sky130_fd_pr__nfet_01v8 ad=0.125 pd=1 as=0.125 ps=1 w=0.5 l=0.15
X117 a_5970_4630.t12 opamp_cell_4_0.VIN+.t7 a_6490_4630.t1 VDDA.t126 sky130_fd_pr__pfet_01v8 ad=0.25 pd=1.5 as=0.25 ps=1.5 w=1 l=0.15
X118 VDDA.t12 opamp_cell_4_0.p_bias.t12 a_5970_4630.t0 VDDA.t11 sky130_fd_pr__pfet_01v8 ad=0.625 pd=3 as=0.625 ps=3 w=2.5 l=0.5
X119 VDDA.t36 pfd_8_0.Reset.t4 a_1390_640.t1 VDDA.t20 sky130_fd_pr__pfet_01v8 ad=0.8 pd=4.8 as=0.4 ps=2.4 w=2 l=0.15
X120 VDDA.t33 opamp_cell_4_0.p_bias.t0 opamp_cell_4_0.p_bias.t1 VDDA.t32 sky130_fd_pr__pfet_01v8 ad=0.625 pd=3 as=0.625 ps=3 w=2.5 l=0.5
X121 pfd_8_0.UP_input.t12 pfd_8_0.UP.t5 VDDA.t122 VDDA.t121 sky130_fd_pr__pfet_01v8 ad=1 pd=5 as=1 ps=5 w=2 l=0.15
X122 opamp_cell_4_0.n_right.t4 charge_pump_cell_6_0.UP_b.t1 V_OUT.t87 sky130_fd_pr__res_xhigh_po_0p35 l=1.14
X123 VDDA.t49 VDDA.t46 VDDA.t48 VDDA.t47 sky130_fd_pr__pfet_01v8 ad=0.5 pd=3 as=0 ps=0 w=1 l=0.15
X124 a_6320_5840.t9 a_6320_5840.t7 a_6320_5840.t8 V_OUT.t43 sky130_fd_pr__nfet_01v8 ad=0.25 pd=2 as=0 ps=0 w=0.5 l=0.15
X125 V_OUT.t3 pfd_8_0.QB.t6 pfd_8_0.QB_b.t1 V_OUT.t2 sky130_fd_pr__nfet_01v8 ad=0.4 pd=2.8 as=0.2 ps=1.4 w=1 l=0.15
X126 a_6320_5840.t3 a_6220_5810.t12 V_OUT.t48 V_OUT.t47 sky130_fd_pr__nfet_01v8 ad=0.3125 pd=1.75 as=0.3125 ps=1.75 w=1.25 l=0.5
X127 V_OUT.t7 pfd_8_0.Reset.t5 pfd_8_0.F_b.t0 V_OUT.t6 sky130_fd_pr__nfet_01v8 ad=0.4 pd=2.8 as=0.2 ps=1.4 w=1 l=0.15
X128 a_6320_5840.t6 a_6320_5840.t5 a_6320_5840.t6 V_OUT.t40 sky130_fd_pr__nfet_01v8 ad=0.125 pd=1 as=0 ps=0 w=0.5 l=0.15
X129 VDDA.t45 VDDA.t43 VDDA.t45 VDDA.t44 sky130_fd_pr__pfet_01v8 ad=0.25 pd=1.5 as=0 ps=0 w=1 l=0.15
X130 a_6220_5810.t1 a_6220_5810.t0 V_OUT.t39 V_OUT.t38 sky130_fd_pr__nfet_01v8 ad=0.3125 pd=1.75 as=0.3125 ps=1.75 w=1.25 l=0.5
X131 pfd_8_0.E.t1 pfd_8_0.QA_b.t6 V_OUT.t154 V_OUT.t153 sky130_fd_pr__nfet_01v8 ad=0.2 pd=1.4 as=0.4 ps=2.8 w=1 l=0.15
X132 VDDA.t120 pfd_8_0.QA.t7 pfd_8_0.before_Reset.t2 VDDA.t119 sky130_fd_pr__pfet_01v8 ad=0.8 pd=4.8 as=0.4 ps=2.4 w=2 l=0.15
X133 a_n30_640.t1 F_VCO.t0 VDDA.t111 VDDA.t96 sky130_fd_pr__pfet_01v8 ad=0.4 pd=2.4 as=0.8 ps=4.8 w=2 l=0.15
X134 pfd_8_0.UP_PFD_b.t0 pfd_8_0.QA.t8 VDDA.t118 VDDA.t113 sky130_fd_pr__pfet_01v8 ad=1 pd=5 as=1 ps=5 w=2 l=0.15
X135 a_6490_4630.t3 a_6200_5250.t7 V_OUT.t93 V_OUT.t92 sky130_fd_pr__nfet_01v8 ad=0.125 pd=1 as=0.125 ps=1 w=0.5 l=0.15
X136 a_6490_4630.t0 opamp_cell_4_0.VIN+.t8 a_5970_4630.t11 VDDA.t125 sky130_fd_pr__pfet_01v8 ad=0.25 pd=1.5 as=0.25 ps=1.5 w=1 l=0.15
X137 VDDA.t123 pfd_8_0.E.t5 a_490_1400.t0 VDDA.t26 sky130_fd_pr__pfet_01v8 ad=0.8 pd=4.8 as=0.4 ps=2.4 w=2 l=0.15
X138 VDDA.t128 a_2200_190.t2 a_1870_190.t0 VDDA.t127 sky130_fd_pr__pfet_01v8 ad=0.8 pd=4.8 as=0.8 ps=4.8 w=2 l=0.15
X139 pfd_8_0.QA_b.t2 F_REF.t1 V_OUT.t82 V_OUT.t81 sky130_fd_pr__nfet_01v8 ad=0.2 pd=1.4 as=0.4 ps=2.8 w=1 l=0.15
X140 pfd_8_0.QB_b.t2 F_VCO.t1 V_OUT.t23 V_OUT.t22 sky130_fd_pr__nfet_01v8 ad=0.2 pd=1.4 as=0.4 ps=2.8 w=1 l=0.15
X141 a_490_640.t1 pfd_8_0.QB_b.t5 pfd_8_0.QB.t2 VDDA.t124 sky130_fd_pr__pfet_01v8 ad=0.4 pd=2.4 as=0.8 ps=4.8 w=2 l=0.15
X142 VDDA.t1 pfd_8_0.UP_input.t21 opamp_cell_4_0.VIN+.t3 VDDA.t0 sky130_fd_pr__pfet_01v8 ad=0.5 pd=2.5 as=0.5 ps=2.5 w=2 l=0.6
X143 V_OUT.t25 a_2200_190.t3 a_1870_190.t1 V_OUT.t24 sky130_fd_pr__nfet_01v8 ad=0.4 pd=2.8 as=0.4 ps=2.8 w=1 l=0.15
X144 a_6320_5840.t2 opamp_cell_4_0.VIN+.t9 opamp_cell_4_0.n_right.t0 V_OUT.t155 sky130_fd_pr__nfet_01v8 ad=0.125 pd=1 as=0.125 ps=1 w=0.5 l=0.15
X145 VDDA.t81 opamp_cell_4_0.n_left.t7 opamp_cell_4_0.n_right.t2 VDDA.t80 sky130_fd_pr__pfet_01v8 ad=0.25 pd=1.5 as=0.25 ps=1.5 w=1 l=0.15
X146 pfd_8_0.QB.t1 pfd_8_0.QB_b.t6 V_OUT.t54 V_OUT.t53 sky130_fd_pr__nfet_01v8 ad=0.2 pd=1.4 as=0.4 ps=2.8 w=1 l=0.15
X147 pfd_8_0.DOWN_PFD_b.t2 pfd_8_0.QB.t7 VDDA.t114 VDDA.t113 sky130_fd_pr__pfet_01v8 ad=1 pd=5 as=1 ps=5 w=2 l=0.15
X148 pfd_8_0.UP.t1 pfd_8_0.UP_PFD_b.t3 V_OUT.t158 V_OUT.t157 sky130_fd_pr__nfet_01v8 ad=0.5 pd=3 as=0.5 ps=3 w=1 l=0.15
X149 pfd_8_0.DOWN_PFD_b.t0 pfd_8_0.QB.t8 V_OUT.t37 V_OUT.t36 sky130_fd_pr__nfet_01v8 ad=0.5 pd=3 as=0.5 ps=3 w=1 l=0.15
X150 pfd_8_0.E_b.t2 pfd_8_0.E.t6 V_OUT.t52 V_OUT.t51 sky130_fd_pr__nfet_01v8 ad=0.2 pd=1.4 as=0.4 ps=2.8 w=1 l=0.15
X151 opamp_cell_4_0.VIN+.t2 pfd_8_0.UP_input.t22 VDDA.t38 VDDA.t37 sky130_fd_pr__pfet_01v8 ad=0.5 pd=2.5 as=0.5 ps=2.5 w=2 l=0.6
X152 pfd_8_0.DOWN_b.t1 V_OUT.t164 pfd_8_0.DOWN_PFD_b.t3 VDDA.t115 sky130_fd_pr__pfet_01v8 ad=1 pd=5 as=1 ps=5 w=2 l=0.15
R0 a_6200_5250.n5 a_6200_5250.n4 427.647
R1 a_6200_5250.n1 a_6200_5250.t6 321.334
R2 a_6200_5250.n4 a_6200_5250.n0 210.601
R3 a_6200_5250.n2 a_6200_5250.n1 208.868
R4 a_6200_5250.n3 a_6200_5250.t0 174.056
R5 a_6200_5250.n4 a_6200_5250.n3 152
R6 a_6200_5250.n1 a_6200_5250.t7 112.468
R7 a_6200_5250.n2 a_6200_5250.t2 112.468
R8 a_6200_5250.n3 a_6200_5250.n2 61.5894
R9 a_6200_5250.n0 a_6200_5250.t3 60.0005
R10 a_6200_5250.n0 a_6200_5250.t1 60.0005
R11 a_6200_5250.n5 a_6200_5250.t5 49.2505
R12 a_6200_5250.t4 a_6200_5250.n5 49.2505
R13 V_OUT.n384 V_OUT.n383 348175
R14 V_OUT.n383 V_OUT.n382 292776
R15 V_OUT.n280 V_OUT.t46 25257.7
R16 V_OUT.n286 V_OUT.n280 15376.3
R17 V_OUT.n382 V_OUT.t32 2083.03
R18 V_OUT.t83 V_OUT.t85 1939.79
R19 V_OUT.t53 V_OUT.t2 1939.79
R20 V_OUT.n224 V_OUT.n36 1860.65
R21 V_OUT.t1 V_OUT.t36 1845.16
R22 V_OUT.t15 V_OUT.t159 1372.04
R23 V_OUT.t41 V_OUT.n371 1253.76
R24 V_OUT.n378 V_OUT.n377 1230.11
R25 V_OUT.n270 V_OUT.n269 1186
R26 V_OUT.n223 V_OUT.n222 1186
R27 V_OUT.n216 V_OUT.n215 1186
R28 V_OUT.n277 V_OUT.n276 1186
R29 V_OUT.n279 V_OUT.n278 1170
R30 V_OUT.n381 V_OUT.t15 1064.52
R31 V_OUT.n379 V_OUT.t1 1064.52
R32 V_OUT.n382 V_OUT.n366 1052.76
R33 V_OUT.t161 V_OUT.n375 922.582
R34 V_OUT.t24 V_OUT.n373 922.582
R35 V_OUT.n118 V_OUT.t81 783.001
R36 V_OUT.t32 V_OUT.n381 780.645
R37 V_OUT.t159 V_OUT.n379 780.645
R38 V_OUT.t36 V_OUT.n378 780.645
R39 V_OUT.n338 V_OUT.n337 669.307
R40 V_OUT.n340 V_OUT.n48 669.307
R41 V_OUT.n333 V_OUT.n332 669.307
R42 V_OUT.n330 V_OUT.n52 669.307
R43 V_OUT.n285 V_OUT.n284 669.307
R44 V_OUT.n288 V_OUT.n287 669.307
R45 V_OUT.n377 V_OUT.t161 638.711
R46 V_OUT.n375 V_OUT.t24 638.711
R47 V_OUT.n373 V_OUT.t41 638.711
R48 V_OUT.n371 V_OUT.t6 638.711
R49 V_OUT.t58 V_OUT.n369 638.711
R50 V_OUT.n369 V_OUT.t26 638.711
R51 V_OUT.n384 V_OUT.t22 638.711
R52 V_OUT.t150 V_OUT.t51 601.333
R53 V_OUT.t28 V_OUT.t18 601.333
R54 V_OUT.t142 V_OUT.t13 593.865
R55 V_OUT.t13 V_OUT.t30 593.865
R56 V_OUT.t30 V_OUT.t111 593.865
R57 V_OUT.t11 V_OUT.t125 593.865
R58 V_OUT.t44 V_OUT.t11 593.865
R59 V_OUT.t105 V_OUT.t44 593.865
R60 V_OUT.t119 V_OUT.t88 593.865
R61 V_OUT.t88 V_OUT.t66 593.865
R62 V_OUT.t66 V_OUT.t101 593.865
R63 V_OUT.n369 V_OUT.n368 585.003
R64 V_OUT.n117 V_OUT.n116 585.003
R65 V_OUT.n114 V_OUT.n113 585.001
R66 V_OUT.n112 V_OUT.n111 585.001
R67 V_OUT.n110 V_OUT.n109 585.001
R68 V_OUT.n89 V_OUT.n37 585.001
R69 V_OUT.n268 V_OUT.n267 585.001
R70 V_OUT.n225 V_OUT.n224 585.001
R71 V_OUT.n186 V_OUT.n185 585.001
R72 V_OUT.n86 V_OUT.n85 585.001
R73 V_OUT.n84 V_OUT.n81 585.001
R74 V_OUT.n381 V_OUT.n380 585.001
R75 V_OUT.n379 V_OUT.n8 585.001
R76 V_OUT.n378 V_OUT.n14 585.001
R77 V_OUT.n377 V_OUT.n376 585.001
R78 V_OUT.n375 V_OUT.n374 585.001
R79 V_OUT.n373 V_OUT.n372 585.001
R80 V_OUT.n371 V_OUT.n370 585.001
R81 V_OUT.n385 V_OUT.n384 585.001
R82 V_OUT.n283 V_OUT.n281 585
R83 V_OUT.n78 V_OUT.n76 585
R84 V_OUT.n56 V_OUT.n53 585
R85 V_OUT.n59 V_OUT.n58 585
R86 V_OUT.n51 V_OUT.n50 585
R87 V_OUT.n342 V_OUT.n341 585
R88 V_OUT.n365 V_OUT.n364 585
R89 V_OUT.n366 V_OUT.n365 585
R90 V_OUT.n363 V_OUT.n40 585
R91 V_OUT.n361 V_OUT.n360 585
R92 V_OUT.n359 V_OUT.n39 585
R93 V_OUT.n366 V_OUT.n39 585
R94 V_OUT.n12 V_OUT.t164 566.966
R95 V_OUT.n286 V_OUT.t142 566.871
R96 V_OUT.n334 V_OUT.t111 566.871
R97 V_OUT.t125 V_OUT.n334 566.871
R98 V_OUT.n339 V_OUT.t105 566.871
R99 V_OUT.n339 V_OUT.t119 566.871
R100 V_OUT.n366 V_OUT.t101 566.871
R101 V_OUT.t60 V_OUT.n277 564.696
R102 V_OUT.n280 V_OUT.t87 534.24
R103 V_OUT.t6 V_OUT.t83 520.431
R104 V_OUT.t85 V_OUT.t58 520.431
R105 V_OUT.t26 V_OUT.t53 520.431
R106 V_OUT.t2 V_OUT.t22 520.431
R107 V_OUT.t87 V_OUT.t60 509.197
R108 V_OUT.t46 V_OUT.t148 425.334
R109 V_OUT.n85 V_OUT.t68 418
R110 V_OUT.n186 V_OUT.t157 344.668
R111 V_OUT.t34 V_OUT.n84 344.668
R112 V_OUT.n335 V_OUT.t118 336.329
R113 V_OUT.n335 V_OUT.t104 336.329
R114 V_OUT.n54 V_OUT.t124 336.329
R115 V_OUT.n54 V_OUT.t110 336.329
R116 V_OUT.n358 V_OUT.t100 320.7
R117 V_OUT.n289 V_OUT.t141 320.7
R118 V_OUT.n280 V_OUT.n279 309.736
R119 V_OUT.n187 V_OUT.t121 304.634
R120 V_OUT.n271 V_OUT.t134 304.634
R121 V_OUT.n221 V_OUT.t114 304.634
R122 V_OUT.n217 V_OUT.t127 304.634
R123 V_OUT.n266 V_OUT.t138 292.584
R124 V_OUT.n226 V_OUT.t130 292.584
R125 V_OUT.t79 V_OUT.n37 286
R126 V_OUT.t10 V_OUT.n110 286
R127 V_OUT.n286 V_OUT.n285 250.349
R128 V_OUT.n287 V_OUT.n286 250.349
R129 V_OUT.n334 V_OUT.n333 250.349
R130 V_OUT.n334 V_OUT.n52 250.349
R131 V_OUT.n339 V_OUT.n338 250.349
R132 V_OUT.n340 V_OUT.n339 250.349
R133 V_OUT.n366 V_OUT.n38 250.349
R134 V_OUT.n276 V_OUT.t123 245
R135 V_OUT.n270 V_OUT.t137 245
R136 V_OUT.n222 V_OUT.t117 245
R137 V_OUT.n216 V_OUT.t129 245
R138 V_OUT.n69 V_OUT.n68 242.903
R139 V_OUT.t148 V_OUT.n186 227.333
R140 V_OUT.n84 V_OUT.t157 227.333
R141 V_OUT.n85 V_OUT.t34 227.333
R142 V_OUT.n114 V_OUT.n112 205.333
R143 V_OUT.n273 V_OUT.n189 204.201
R144 V_OUT.n219 V_OUT.n213 204.201
R145 V_OUT.n220 V_OUT.n212 204.201
R146 V_OUT.n218 V_OUT.n214 204.201
R147 V_OUT.n272 V_OUT.n190 204.201
R148 V_OUT.n275 V_OUT.n274 204.201
R149 V_OUT.n391 V_OUT.t3 198.058
R150 V_OUT.n32 V_OUT.t54 198.058
R151 V_OUT.n405 V_OUT.t86 198.058
R152 V_OUT.n410 V_OUT.t84 198.058
R153 V_OUT.n143 V_OUT.t52 198.058
R154 V_OUT.n138 V_OUT.t151 198.058
R155 V_OUT.n105 V_OUT.t19 198.058
R156 V_OUT.n124 V_OUT.t29 198.058
R157 V_OUT.n110 V_OUT.t79 198
R158 V_OUT.n112 V_OUT.t64 198
R159 V_OUT.t20 V_OUT.n114 198
R160 V_OUT.n117 V_OUT.t153 198
R161 V_OUT.t56 V_OUT.n117 198
R162 V_OUT.n341 V_OUT.n51 197
R163 V_OUT.n58 V_OUT.n53 197
R164 V_OUT.n281 V_OUT.n78 197
R165 V_OUT.n365 V_OUT.n40 197
R166 V_OUT.n360 V_OUT.n39 197
R167 V_OUT.n337 V_OUT.n336 185
R168 V_OUT.n336 V_OUT.n48 185
R169 V_OUT.n332 V_OUT.n331 185
R170 V_OUT.n331 V_OUT.n330 185
R171 V_OUT.n284 V_OUT.n77 185
R172 V_OUT.n288 V_OUT.n77 185
R173 V_OUT.n364 V_OUT.n41 185
R174 V_OUT.n359 V_OUT.n41 185
R175 V_OUT.n69 V_OUT.n67 172.502
R176 V_OUT.n337 V_OUT.n335 166.63
R177 V_OUT.n332 V_OUT.n54 166.63
R178 V_OUT.t64 V_OUT.t10 161.333
R179 V_OUT.t51 V_OUT.t20 161.333
R180 V_OUT.t153 V_OUT.t150 161.333
R181 V_OUT.t18 V_OUT.t56 161.333
R182 V_OUT.t81 V_OUT.t28 161.333
R183 V_OUT.n3 V_OUT.t9 158.893
R184 V_OUT.n267 V_OUT.t140 134.501
R185 V_OUT.n225 V_OUT.t133 134.501
R186 V_OUT.n31 V_OUT.t27 130.713
R187 V_OUT.n385 V_OUT.t23 130.001
R188 V_OUT.n370 V_OUT.t7 130.001
R189 V_OUT.n372 V_OUT.t42 130.001
R190 V_OUT.n374 V_OUT.t25 130.001
R191 V_OUT.n376 V_OUT.t162 130.001
R192 V_OUT.n118 V_OUT.t82 130.001
R193 V_OUT.n113 V_OUT.t21 130.001
R194 V_OUT.n111 V_OUT.t65 130.001
R195 V_OUT.n109 V_OUT.t80 130.001
R196 V_OUT.n89 V_OUT.t69 130.001
R197 V_OUT.n115 V_OUT.t154 130.001
R198 V_OUT.n104 V_OUT.t57 130.001
R199 V_OUT.n367 V_OUT.t59 130.001
R200 V_OUT.n14 V_OUT.t37 122.501
R201 V_OUT.n8 V_OUT.t160 122.501
R202 V_OUT.n380 V_OUT.t33 122.501
R203 V_OUT.n86 V_OUT.t35 122.501
R204 V_OUT.n185 V_OUT.t149 122.501
R205 V_OUT.n81 V_OUT.t158 122.501
R206 V_OUT.n73 V_OUT.n72 118.35
R207 V_OUT.n268 V_OUT.t40 112.157
R208 V_OUT.n74 V_OUT.n73 106.662
R209 V_OUT.n194 V_OUT.n193 97.8707
R210 V_OUT.n198 V_OUT.n197 97.8707
R211 V_OUT.n202 V_OUT.n201 97.8707
R212 V_OUT.n206 V_OUT.n205 97.8707
R213 V_OUT.n211 V_OUT.n210 97.8707
R214 V_OUT.n215 V_OUT.t61 97.7783
R215 V_OUT.n277 V_OUT.t122 94.9025
R216 V_OUT.n269 V_OUT.t135 94.9025
R217 V_OUT.n298 V_OUT.n64 92.2612
R218 V_OUT.n291 V_OUT.n75 92.2612
R219 V_OUT.n324 V_OUT.n304 92.2612
R220 V_OUT.n318 V_OUT.n307 92.2612
R221 V_OUT.n346 V_OUT.n345 92.2612
R222 V_OUT.n353 V_OUT.n352 92.2612
R223 V_OUT.n336 V_OUT.n49 91.3721
R224 V_OUT.n344 V_OUT.n47 91.3721
R225 V_OUT.n344 V_OUT.n343 91.3721
R226 V_OUT.n331 V_OUT.n57 91.3721
R227 V_OUT.n303 V_OUT.n55 91.3721
R228 V_OUT.n303 V_OUT.n60 91.3721
R229 V_OUT.n282 V_OUT.n77 90.7567
R230 V_OUT.n362 V_OUT.n41 90.7567
R231 V_OUT.t61 V_OUT.t43 89.1508
R232 V_OUT.n223 V_OUT.t131 86.275
R233 V_OUT.n285 V_OUT.n281 84.306
R234 V_OUT.n287 V_OUT.n78 84.306
R235 V_OUT.n333 V_OUT.n53 84.306
R236 V_OUT.n58 V_OUT.n52 84.306
R237 V_OUT.n338 V_OUT.n51 84.306
R238 V_OUT.n341 V_OUT.n340 84.306
R239 V_OUT.n40 V_OUT.n38 84.306
R240 V_OUT.n360 V_OUT.n38 84.306
R241 V_OUT.n278 V_OUT.t108 84.2543
R242 V_OUT.n219 V_OUT.n218 83.2005
R243 V_OUT.n220 V_OUT.n219 83.2005
R244 V_OUT.n278 V_OUT.t163 81.0543
R245 V_OUT.n383 V_OUT.n36 80.6672
R246 V_OUT.t16 V_OUT.t128 77.6476
R247 V_OUT.t75 V_OUT.t122 74.7717
R248 V_OUT.t73 V_OUT.t75 74.7717
R249 V_OUT.t71 V_OUT.t73 74.7717
R250 V_OUT.t77 V_OUT.t71 74.7717
R251 V_OUT.t135 V_OUT.t77 74.7717
R252 V_OUT.n269 V_OUT.n268 74.7717
R253 V_OUT.t145 V_OUT.t152 74.7717
R254 V_OUT.t94 V_OUT.t92 74.7717
R255 V_OUT.t96 V_OUT.t115 74.7717
R256 V_OUT.n383 V_OUT.n37 73.3338
R257 V_OUT.t155 V_OUT.t139 71.8959
R258 V_OUT.t49 V_OUT.t98 71.8959
R259 V_OUT.n274 V_OUT.n273 66.5605
R260 V_OUT.n273 V_OUT.n272 66.5605
R261 V_OUT.t144 V_OUT.t146 66.1443
R262 V_OUT.n273 V_OUT.n188 65.9634
R263 V_OUT.n119 V_OUT.n118 60.29
R264 V_OUT.n113 V_OUT.n97 60.29
R265 V_OUT.n111 V_OUT.n96 60.29
R266 V_OUT.n109 V_OUT.n92 60.29
R267 V_OUT.n90 V_OUT.n89 60.29
R268 V_OUT.n376 V_OUT.n17 60.29
R269 V_OUT.n374 V_OUT.n19 60.29
R270 V_OUT.n372 V_OUT.n21 60.29
R271 V_OUT.n370 V_OUT.n25 60.29
R272 V_OUT.n386 V_OUT.n385 60.29
R273 V_OUT.n189 V_OUT.t74 60.0005
R274 V_OUT.n189 V_OUT.t72 60.0005
R275 V_OUT.n213 V_OUT.t93 60.0005
R276 V_OUT.n213 V_OUT.t99 60.0005
R277 V_OUT.n212 V_OUT.t97 60.0005
R278 V_OUT.n212 V_OUT.t116 60.0005
R279 V_OUT.t129 V_OUT.n214 60.0005
R280 V_OUT.n214 V_OUT.t95 60.0005
R281 V_OUT.n190 V_OUT.t78 60.0005
R282 V_OUT.n190 V_OUT.t136 60.0005
R283 V_OUT.t123 V_OUT.n275 60.0005
R284 V_OUT.n275 V_OUT.t76 60.0005
R285 V_OUT.n171 V_OUT.n86 59.5478
R286 V_OUT.n185 V_OUT.n184 59.5478
R287 V_OUT.n178 V_OUT.n81 59.5478
R288 V_OUT.n450 V_OUT.n8 58.9809
R289 V_OUT.n438 V_OUT.n14 58.9809
R290 V_OUT.n380 V_OUT.n4 58.9809
R291 V_OUT.n279 V_OUT.t8 56.0165
R292 V_OUT.n132 V_OUT.n104 54.4005
R293 V_OUT.n115 V_OUT.n103 54.4005
R294 V_OUT.n367 V_OUT.n30 54.4005
R295 V_OUT.n399 V_OUT.n31 54.4005
R296 V_OUT.t90 V_OUT.t144 48.8894
R297 V_OUT.t68 V_OUT.n36 44.0005
R298 V_OUT.t4 V_OUT.t155 43.1378
R299 V_OUT.t98 V_OUT.t47 43.1378
R300 V_OUT.n219 V_OUT.n208 41.6005
R301 V_OUT.n463 V_OUT.n1 41.3005
R302 V_OUT.n263 V_OUT.n188 39.4985
R303 V_OUT.t128 V_OUT.t38 37.3861
R304 V_OUT.t38 V_OUT.t94 37.3861
R305 V_OUT.n119 V_OUT.n108 33.0991
R306 V_OUT.n386 V_OUT.n35 33.0991
R307 V_OUT.n299 V_OUT.n298 32.0005
R308 V_OUT.n299 V_OUT.n61 32.0005
R309 V_OUT.n293 V_OUT.n292 32.0005
R310 V_OUT.n293 V_OUT.n65 32.0005
R311 V_OUT.n297 V_OUT.n65 32.0005
R312 V_OUT.n325 V_OUT.n62 32.0005
R313 V_OUT.n323 V_OUT.n305 32.0005
R314 V_OUT.n319 V_OUT.n305 32.0005
R315 V_OUT.n319 V_OUT.n318 32.0005
R316 V_OUT.n317 V_OUT.n308 32.0005
R317 V_OUT.n313 V_OUT.n308 32.0005
R318 V_OUT.n312 V_OUT.n311 32.0005
R319 V_OUT.n311 V_OUT.n46 32.0005
R320 V_OUT.n350 V_OUT.n44 32.0005
R321 V_OUT.n351 V_OUT.n350 32.0005
R322 V_OUT.n357 V_OUT.n42 32.0005
R323 V_OUT.n263 V_OUT.n262 32.0005
R324 V_OUT.n262 V_OUT.n261 32.0005
R325 V_OUT.n261 V_OUT.n192 32.0005
R326 V_OUT.n257 V_OUT.n192 32.0005
R327 V_OUT.n257 V_OUT.n256 32.0005
R328 V_OUT.n256 V_OUT.n255 32.0005
R329 V_OUT.n255 V_OUT.n196 32.0005
R330 V_OUT.n251 V_OUT.n196 32.0005
R331 V_OUT.n251 V_OUT.n250 32.0005
R332 V_OUT.n250 V_OUT.n249 32.0005
R333 V_OUT.n249 V_OUT.n200 32.0005
R334 V_OUT.n245 V_OUT.n200 32.0005
R335 V_OUT.n245 V_OUT.n244 32.0005
R336 V_OUT.n244 V_OUT.n243 32.0005
R337 V_OUT.n243 V_OUT.n204 32.0005
R338 V_OUT.n239 V_OUT.n238 32.0005
R339 V_OUT.n238 V_OUT.n237 32.0005
R340 V_OUT.n237 V_OUT.n209 32.0005
R341 V_OUT.n232 V_OUT.n209 32.0005
R342 V_OUT.n232 V_OUT.n231 32.0005
R343 V_OUT.n231 V_OUT.n230 32.0005
R344 V_OUT.n184 V_OUT.n79 32.0005
R345 V_OUT.n180 V_OUT.n79 32.0005
R346 V_OUT.n180 V_OUT.n179 32.0005
R347 V_OUT.n177 V_OUT.n82 32.0005
R348 V_OUT.n173 V_OUT.n82 32.0005
R349 V_OUT.n173 V_OUT.n172 32.0005