* PEX produced on Mon Feb 17 06:03:56 PM CET 2025 using ./iic-pex.sh with m=3 and s=1
* NGSPICE file created from pfd_cp_magic_3.ext - technology: sky130A

.subckt pfd_cp_magic V_OUT VDDA GNDA F_REF F_VCO I_IN
X0 a_6400_6270.t4 a_6400_6270.t3 GNDA.t92 GNDA.t91 sky130_fd_pr__nfet_01v8 ad=0.3125 pd=1.75 as=0.3125 ps=1.75 w=1.25 l=0.5
X1 VDDA.t108 opamp_cell_4_0.n_left.t6 opamp_cell_4_0.n_right.t3 VDDA.t107 sky130_fd_pr__pfet_01v8 ad=0.25 pd=1.5 as=0.25 ps=1.5 w=1 l=0.15
X2 VDDA.t116 opamp_cell_4_0.n_right.t5 pfd_8_0.opamp_out.t8 VDDA.t115 sky130_fd_pr__pfet_01v8 ad=0.25 pd=1.5 as=0.25 ps=1.5 w=1 l=0.15
X3 GNDA.t138 a_6380_5710.t2 a_6380_5710.t3 GNDA.t137 sky130_fd_pr__nfet_01v8 ad=0.125 pd=1 as=0.125 ps=1 w=0.5 l=0.15
X4 a_6500_6300.t4 a_6500_6300.t2 a_6500_6300.t3 GNDA.t30 sky130_fd_pr__nfet_01v8 ad=0.25 pd=2 as=0 ps=0 w=0.5 l=0.15
X5 pfd_8_0.DOWN_b.t0 VDDA.t129 pfd_8_0.DOWN_PFD_b.t2 GNDA.t44 sky130_fd_pr__nfet_01v8 ad=0.5 pd=3 as=0.5 ps=3 w=1 l=0.15
X6 a_870_1400.t0 pfd_8_0.QA_b.t3 VDDA.t71 VDDA.t70 sky130_fd_pr__pfet_01v8 ad=0.4 pd=2.4 as=0.8 ps=4.8 w=2 l=0.15
X7 a_6500_6300.t12 a_6400_6270.t9 GNDA.t90 GNDA.t89 sky130_fd_pr__nfet_01v8 ad=0.3125 pd=1.75 as=0.3125 ps=1.75 w=1.25 l=0.5
X8 a_6150_5090.t4 opamp_cell_4_0.p_bias.t9 VDDA.t11 VDDA.t10 sky130_fd_pr__pfet_01v8 ad=0.625 pd=3 as=0.625 ps=3 w=2.5 l=0.5
X9 pfd_8_0.DOWN.t0 pfd_8_0.DOWN_b.t2 VDDA.t122 VDDA.t31 sky130_fd_pr__pfet_01v8 ad=1 pd=5 as=1 ps=5 w=2 l=0.15
X10 V_OUT.t3 pfd_8_0.UP_input.t3 VDDA.t90 VDDA.t89 sky130_fd_pr__pfet_01v8 ad=0.5 pd=2.5 as=0.5 ps=2.5 w=2 l=0.6
X11 opamp_cell_4_0.p_bias.t7 opamp_cell_4_0.p_bias.t6 VDDA.t94 VDDA.t93 sky130_fd_pr__pfet_01v8 ad=0.625 pd=3 as=0.625 ps=3 w=2.5 l=0.5
X12 a_6150_5090.t12 V_OUT.t6 a_6380_5710.t5 VDDA.t92 sky130_fd_pr__pfet_01v8 ad=0.25 pd=1.5 as=0.25 ps=1.5 w=1 l=0.15
X13 VDDA.t69 VDDA.t66 VDDA.t68 VDDA.t67 sky130_fd_pr__pfet_01v8 ad=0.5 pd=3 as=0 ps=0 w=1 l=0.15
X14 a_2350_1400.t1 pfd_8_0.before_Reset.t3 GNDA.t27 GNDA.t26 sky130_fd_pr__nfet_01v8 ad=0.4 pd=2.8 as=0.4 ps=2.8 w=1 l=0.15
X15 pfd_8_0.DOWN.t1 pfd_8_0.DOWN_b.t3 GNDA.t74 GNDA.t73 sky130_fd_pr__nfet_01v8 ad=0.5 pd=3 as=0.5 ps=3 w=1 l=0.15
X16 GNDA.t134 GNDA.t131 GNDA.t133 GNDA.t132 sky130_fd_pr__nfet_01v8 ad=0.625 pd=3.5 as=0 ps=0 w=1.25 l=0.5
X17 a_n30_1400.t1 F_REF.t0 VDDA.t28 VDDA.t27 sky130_fd_pr__pfet_01v8 ad=0.4 pd=2.4 as=0.8 ps=4.8 w=2 l=0.15
X18 pfd_8_0.opamp_out.t3 a_6670_5090.t5 GNDA.t29 GNDA.t28 sky130_fd_pr__nfet_01v8 ad=0.125 pd=1 as=0.125 ps=1 w=0.5 l=0.15
X19 GNDA.t13 pfd_8_0.QA.t3 pfd_8_0.QA_b.t0 GNDA.t12 sky130_fd_pr__nfet_01v8 ad=0.4 pd=2.8 as=0.2 ps=1.4 w=1 l=0.15
X20 GNDA.t88 a_6400_6270.t10 a_6500_6300.t11 GNDA.t87 sky130_fd_pr__nfet_01v8 ad=0.3125 pd=1.75 as=0.3125 ps=1.75 w=1.25 l=0.5
X21 pfd_8_0.DOWN_input.t0 pfd_8_0.DOWN_b.t4 I_IN.t0 VDDA.t17 sky130_fd_pr__pfet_01v8 ad=1 pd=5 as=1 ps=5 w=2 l=0.15
X22 pfd_8_0.opamp_out.t7 opamp_cell_4_0.n_right.t6 VDDA.t114 VDDA.t113 sky130_fd_pr__pfet_01v8 ad=0.25 pd=1.5 as=0.25 ps=1.5 w=1 l=0.15
X23 a_1910_2020.t0 pfd_8_0.QB.t3 GNDA.t61 GNDA.t60 sky130_fd_pr__nfet_01v8 ad=0.2 pd=1.4 as=0.4 ps=2.8 w=1 l=0.15
X24 a_6500_6300.t1 a_6500_6300.t0 a_6500_6300.t1 GNDA.t143 sky130_fd_pr__nfet_01v8 ad=0.125 pd=1 as=0 ps=0 w=0.5 l=0.15
X25 pfd_8_0.UP.t0 pfd_8_0.UP_PFD_b.t2 VDDA.t100 VDDA.t99 sky130_fd_pr__pfet_01v8 ad=1 pd=5 as=1 ps=5 w=2 l=0.15
X26 pfd_8_0.UP_input.t2 pfd_8_0.UP.t2 pfd_8_0.opamp_out.t9 GNDA.t152 sky130_fd_pr__nfet_01v8 ad=0.5 pd=3 as=0.5 ps=3 w=1 l=0.15
X27 pfd_8_0.QA.t1 pfd_8_0.QA_b.t4 GNDA.t69 GNDA.t68 sky130_fd_pr__nfet_01v8 ad=0.2 pd=1.4 as=0.4 ps=2.8 w=1 l=0.15
X28 pfd_8_0.opamp_out.t10 a_9540_3974.t0 sky130_fd_pr__cap_mim_m3_1 l=10 w=10
X29 pfd_8_0.DOWN_input.t2 pfd_8_0.DOWN.t3 I_IN.t1 GNDA.t70 sky130_fd_pr__nfet_01v8 ad=0.5 pd=3 as=0.5 ps=3 w=1 l=0.15
X30 a_1390_1400.t1 pfd_8_0.E.t3 pfd_8_0.E_b.t1 VDDA.t25 sky130_fd_pr__pfet_01v8 ad=0.4 pd=2.4 as=0.8 ps=4.8 w=2 l=0.15
X31 a_870_640.t1 pfd_8_0.QB_b.t3 VDDA.t128 VDDA.t70 sky130_fd_pr__pfet_01v8 ad=0.4 pd=2.4 as=0.8 ps=4.8 w=2 l=0.15
X32 VDDA.t65 VDDA.t63 VDDA.t65 VDDA.t64 sky130_fd_pr__pfet_01v8 ad=0.25 pd=1.5 as=0 ps=0 w=1 l=0.15
X33 VDDA.t15 a_2530_190.t2 a_2200_190.t0 VDDA.t14 sky130_fd_pr__pfet_01v8 ad=0.8 pd=4.8 as=0.8 ps=4.8 w=2 l=0.15
X34 GNDA.t130 GNDA.t127 GNDA.t129 GNDA.t128 sky130_fd_pr__nfet_01v8 ad=0.25 pd=2 as=0 ps=0 w=0.5 l=0.15
X35 pfd_8_0.DOWN_input.t1 pfd_8_0.DOWN_b.t5 GNDA.t39 GNDA.t38 sky130_fd_pr__nfet_01v8 ad=0.5 pd=3 as=0.5 ps=3 w=1 l=0.15
X36 GNDA.t48 a_2530_190.t3 a_2200_190.t1 GNDA.t47 sky130_fd_pr__nfet_01v8 ad=0.4 pd=2.8 as=0.4 ps=2.8 w=1 l=0.15
X37 pfd_8_0.F.t1 pfd_8_0.QB_b.t4 GNDA.t54 GNDA.t53 sky130_fd_pr__nfet_01v8 ad=0.2 pd=1.4 as=0.4 ps=2.8 w=1 l=0.15
X38 pfd_8_0.UP_b.t2 pfd_8_0.UP.t3 GNDA.t52 GNDA.t51 sky130_fd_pr__nfet_01v8 ad=0.5 pd=3 as=0.5 ps=3 w=1 l=0.15
X39 GNDA.t46 pfd_8_0.E_b.t3 pfd_8_0.E.t0 GNDA.t45 sky130_fd_pr__nfet_01v8 ad=0.4 pd=2.8 as=0.2 ps=1.4 w=1 l=0.15
X40 a_1390_640.t0 pfd_8_0.F.t3 pfd_8_0.F_b.t0 VDDA.t25 sky130_fd_pr__pfet_01v8 ad=0.4 pd=2.4 as=0.8 ps=4.8 w=2 l=0.15
X41 VDDA.t62 VDDA.t59 VDDA.t61 VDDA.t60 sky130_fd_pr__pfet_01v8 ad=0.5 pd=3 as=0 ps=0 w=1 l=0.15
X42 a_2350_1400.t0 pfd_8_0.before_Reset.t4 VDDA.t22 VDDA.t21 sky130_fd_pr__pfet_01v8 ad=0.8 pd=4.8 as=0.8 ps=4.8 w=2 l=0.15
X43 pfd_8_0.F_b.t1 pfd_8_0.F.t4 GNDA.t56 GNDA.t55 sky130_fd_pr__nfet_01v8 ad=0.2 pd=1.4 as=0.4 ps=2.8 w=1 l=0.15
X44 VDDA.t35 pfd_8_0.F.t5 a_490_640.t0 VDDA.t34 sky130_fd_pr__pfet_01v8 ad=0.8 pd=4.8 as=0.4 ps=2.4 w=2 l=0.15
X45 pfd_8_0.QA_b.t1 pfd_8_0.QA.t4 a_n30_1400.t0 VDDA.t20 sky130_fd_pr__pfet_01v8 ad=0.8 pd=4.8 as=0.4 ps=2.4 w=2 l=0.15
X46 GNDA.t126 GNDA.t124 GNDA.t126 GNDA.t125 sky130_fd_pr__nfet_01v8 ad=0.125 pd=1 as=0 ps=0 w=0.5 l=0.15
X47 opamp_cell_4_0.n_right.t1 opamp_cell_4_0.VIN+.t6 a_6500_6300.t6 GNDA.t25 sky130_fd_pr__nfet_01v8 ad=0.125 pd=1 as=0.125 ps=1 w=0.5 l=0.15
X48 VDDA.t58 VDDA.t56 VDDA.t58 VDDA.t57 sky130_fd_pr__pfet_01v8 ad=0.5 pd=2.5 as=0 ps=0 w=2 l=0.6
X49 GNDA.t151 pfd_8_0.F.t6 pfd_8_0.QB.t2 GNDA.t150 sky130_fd_pr__nfet_01v8 ad=0.4 pd=2.8 as=0.2 ps=1.4 w=1 l=0.15
X50 pfd_8_0.before_Reset.t0 pfd_8_0.QB.t4 VDDA.t4 VDDA.t3 sky130_fd_pr__pfet_01v8 ad=0.4 pd=2.4 as=0.805 ps=5 w=2 l=0.15
X51 GNDA.t123 GNDA.t121 GNDA.t123 GNDA.t122 sky130_fd_pr__nfet_01v8 ad=0.3125 pd=1.75 as=0 ps=0 w=1.25 l=0.5
X52 a_6150_5090.t10 a_6150_5090.t9 a_6150_5090.t10 VDDA.t78 sky130_fd_pr__pfet_01v8 ad=0.25 pd=1.5 as=0 ps=0 w=1 l=0.15
X53 opamp_cell_4_0.n_right.t4 opamp_cell_4_0.n_left.t7 VDDA.t106 VDDA.t105 sky130_fd_pr__pfet_01v8 ad=0.25 pd=1.5 as=0.25 ps=1.5 w=1 l=0.15
X54 pfd_8_0.UP_input.t0 pfd_8_0.UP_b.t3 pfd_8_0.opamp_out.t2 VDDA.t17 sky130_fd_pr__pfet_01v8 ad=1 pd=5 as=1 ps=5 w=2 l=0.15
X55 a_490_1400.t1 pfd_8_0.QA_b.t5 pfd_8_0.QA.t0 VDDA.t33 sky130_fd_pr__pfet_01v8 ad=0.4 pd=2.4 as=0.8 ps=4.8 w=2 l=0.15
X56 a_6380_5710.t1 a_6380_5710.t0 GNDA.t17 GNDA.t16 sky130_fd_pr__nfet_01v8 ad=0.125 pd=1 as=0.125 ps=1 w=0.5 l=0.15
X57 GNDA.t23 pfd_8_0.Reset.t2 pfd_8_0.E_b.t0 GNDA.t22 sky130_fd_pr__nfet_01v8 ad=0.4 pd=2.8 as=0.2 ps=1.4 w=1 l=0.15
X58 opamp_cell_4_0.p_bias.t5 opamp_cell_4_0.p_bias.t4 VDDA.t96 VDDA.t95 sky130_fd_pr__pfet_01v8 ad=0.625 pd=3 as=0.625 ps=3 w=2.5 l=0.5
X59 opamp_cell_4_0.VIN+.t3 pfd_8_0.opamp_out.t11 VDDA.t80 VDDA.t79 sky130_fd_pr__pfet_01v8 ad=0.5 pd=2.5 as=0.5 ps=2.5 w=2 l=0.6
X60 a_2530_190.t1 a_2350_1400.t2 GNDA.t32 GNDA.t31 sky130_fd_pr__nfet_01v8 ad=0.4 pd=2.8 as=0.4 ps=2.8 w=1 l=0.15
X61 VDDA.t55 VDDA.t53 VDDA.t55 VDDA.t54 sky130_fd_pr__pfet_01v8 ad=0.5 pd=2.5 as=0 ps=0 w=2 l=0.6
X62 a_6150_5090.t3 opamp_cell_4_0.p_bias.t10 VDDA.t121 VDDA.t120 sky130_fd_pr__pfet_01v8 ad=0.625 pd=3 as=0.625 ps=3 w=2.5 l=0.5
X63 a_6380_5710.t4 V_OUT.t7 a_6150_5090.t11 VDDA.t91 sky130_fd_pr__pfet_01v8 ad=0.25 pd=1.5 as=0.25 ps=1.5 w=1 l=0.15
X64 GNDA.t86 a_6400_6270.t1 a_6400_6270.t2 GNDA.t85 sky130_fd_pr__nfet_01v8 ad=0.3125 pd=1.75 as=0.3125 ps=1.75 w=1.25 l=0.5
X65 pfd_8_0.E.t2 pfd_8_0.E_b.t4 a_870_1400.t1 VDDA.t16 sky130_fd_pr__pfet_01v8 ad=0.8 pd=4.8 as=0.4 ps=2.4 w=2 l=0.15
X66 a_6500_6300.t8 V_OUT.t8 opamp_cell_4_0.n_left.t1 GNDA.t72 sky130_fd_pr__nfet_01v8 ad=0.125 pd=1 as=0.125 ps=1 w=0.5 l=0.15
X67 pfd_8_0.UP_b.t1 pfd_8_0.UP.t4 VDDA.t32 VDDA.t31 sky130_fd_pr__pfet_01v8 ad=1 pd=5 as=1 ps=5 w=2 l=0.15
X68 GNDA.t84 a_6400_6270.t7 a_6400_6270.t8 GNDA.t83 sky130_fd_pr__nfet_01v8 ad=0.3125 pd=1.75 as=0.3125 ps=1.75 w=1.25 l=0.5
X69 VDDA.t52 VDDA.t50 VDDA.t51 VDDA.t44 sky130_fd_pr__pfet_01v8 ad=1.25 pd=6 as=0 ps=0 w=2.5 l=0.5
X70 VDDA.t98 a_1870_190.t2 pfd_8_0.Reset.t1 VDDA.t97 sky130_fd_pr__pfet_01v8 ad=0.8 pd=4.8 as=0.8 ps=4.8 w=2 l=0.15
X71 VDDA.t76 pfd_8_0.opamp_out.t12 opamp_cell_4_0.VIN+.t2 VDDA.t75 sky130_fd_pr__pfet_01v8 ad=0.5 pd=2.5 as=0.5 ps=2.5 w=2 l=0.6
X72 VDDA.t104 opamp_cell_4_0.n_left.t4 opamp_cell_4_0.n_left.t5 VDDA.t103 sky130_fd_pr__pfet_01v8 ad=0.25 pd=1.5 as=0.25 ps=1.5 w=1 l=0.15
X73 VDDA.t88 pfd_8_0.UP_input.t4 V_OUT.t2 VDDA.t87 sky130_fd_pr__pfet_01v8 ad=0.5 pd=2.5 as=0.5 ps=2.5 w=2 l=0.6
X74 GNDA.t82 a_6400_6270.t11 a_6500_6300.t10 GNDA.t81 sky130_fd_pr__nfet_01v8 ad=0.3125 pd=1.75 as=0.3125 ps=1.75 w=1.25 l=0.5
X75 VDDA.t73 opamp_cell_4_0.p_bias.t11 a_6150_5090.t2 VDDA.t72 sky130_fd_pr__pfet_01v8 ad=0.625 pd=3 as=0.625 ps=3 w=2.5 l=0.5
X76 V_OUT.t5 pfd_8_0.DOWN_input.t3 GNDA.t63 GNDA.t62 sky130_fd_pr__nfet_01v8 ad=0.5 pd=2.5 as=0.5 ps=2.5 w=2 l=0.6
X77 GNDA.t120 GNDA.t117 GNDA.t119 GNDA.t118 sky130_fd_pr__nfet_01v8 ad=0.25 pd=2 as=0 ps=0 w=0.5 l=0.15
X78 GNDA.t41 a_1870_190.t3 pfd_8_0.Reset.t0 GNDA.t40 sky130_fd_pr__nfet_01v8 ad=0.4 pd=2.8 as=0.4 ps=2.8 w=1 l=0.15
X79 pfd_8_0.opamp_out.t0 a_6670_5090.t6 GNDA.t7 GNDA.t6 sky130_fd_pr__nfet_01v8 ad=0.125 pd=1 as=0.125 ps=1 w=0.5 l=0.15
X80 opamp_cell_4_0.n_right.t2 a_9540_3974.t1 GNDA.t57 sky130_fd_pr__res_xhigh_po_0p35 l=1.14
X81 GNDA.t116 GNDA.t114 GNDA.t116 GNDA.t115 sky130_fd_pr__nfet_01v8 ad=0.5 pd=2.5 as=0 ps=0 w=2 l=0.6
X82 a_6150_5090.t8 a_6150_5090.t6 a_6150_5090.t7 VDDA.t77 sky130_fd_pr__pfet_01v8 ad=0.5 pd=3 as=0 ps=0 w=1 l=0.15
X83 a_6500_6300.t9 a_6400_6270.t12 GNDA.t80 GNDA.t79 sky130_fd_pr__nfet_01v8 ad=0.3125 pd=1.75 as=0.3125 ps=1.75 w=1.25 l=0.5
X84 opamp_cell_4_0.VIN+.t1 pfd_8_0.opamp_out.t13 VDDA.t126 VDDA.t125 sky130_fd_pr__pfet_01v8 ad=0.5 pd=2.5 as=0.5 ps=2.5 w=2 l=0.6
X85 pfd_8_0.before_Reset.t2 pfd_8_0.QA.t5 a_1910_2020.t1 GNDA.t18 sky130_fd_pr__nfet_01v8 ad=0.4 pd=2.8 as=0.2 ps=1.4 w=1 l=0.15
X86 pfd_8_0.opamp_out.t6 opamp_cell_4_0.n_right.t7 VDDA.t112 VDDA.t111 sky130_fd_pr__pfet_01v8 ad=0.25 pd=1.5 as=0.25 ps=1.5 w=1 l=0.15
X87 GNDA.t113 GNDA.t111 GNDA.t113 GNDA.t112 sky130_fd_pr__nfet_01v8 ad=0.5 pd=2.5 as=0 ps=0 w=2 l=0.6
X88 pfd_8_0.UP_PFD_b.t1 pfd_8_0.QA.t6 GNDA.t11 GNDA.t10 sky130_fd_pr__nfet_01v8 ad=0.5 pd=3 as=0.5 ps=3 w=1 l=0.15
X89 opamp_cell_4_0.p_bias.t8 a_6400_6270.t0 GNDA.t35 sky130_fd_pr__res_xhigh_po_5p73 l=1
X90 a_6400_6270.t6 a_6400_6270.t5 GNDA.t78 GNDA.t77 sky130_fd_pr__nfet_01v8 ad=0.3125 pd=1.75 as=0.3125 ps=1.75 w=1.25 l=0.5
X91 opamp_cell_4_0.n_left.t0 V_OUT.t9 a_6500_6300.t7 GNDA.t71 sky130_fd_pr__nfet_01v8 ad=0.125 pd=1 as=0.125 ps=1 w=0.5 l=0.15
X92 GNDA.t110 GNDA.t108 GNDA.t110 GNDA.t109 sky130_fd_pr__nfet_01v8 ad=0.125 pd=1 as=0 ps=0 w=0.5 l=0.15
X93 GNDA.t154 pfd_8_0.E.t4 pfd_8_0.QA.t2 GNDA.t153 sky130_fd_pr__nfet_01v8 ad=0.4 pd=2.8 as=0.2 ps=1.4 w=1 l=0.15
X94 pfd_8_0.F.t0 pfd_8_0.F_b.t3 a_870_640.t0 VDDA.t16 sky130_fd_pr__pfet_01v8 ad=0.8 pd=4.8 as=0.4 ps=2.4 w=2 l=0.15
X95 VDDA.t7 pfd_8_0.Reset.t3 a_1390_1400.t0 VDDA.t6 sky130_fd_pr__pfet_01v8 ad=0.8 pd=4.8 as=0.4 ps=2.4 w=2 l=0.15
X96 GNDA.t107 GNDA.t105 GNDA.t107 GNDA.t106 sky130_fd_pr__nfet_01v8 ad=0.5 pd=2.5 as=0 ps=0 w=2 l=0.6
X97 GNDA.t104 GNDA.t101 GNDA.t103 GNDA.t102 sky130_fd_pr__nfet_01v8 ad=1 pd=5 as=0 ps=0 w=2 l=0.6
X98 pfd_8_0.UP_input.t5 pfd_8_0.UP_b.t0 sky130_fd_pr__cap_mim_m3_1 l=6.3 w=7
X99 a_2530_190.t0 a_2350_1400.t3 VDDA.t119 VDDA.t118 sky130_fd_pr__pfet_01v8 ad=0.8 pd=4.8 as=0.8 ps=4.8 w=2 l=0.15
X100 VDDA.t49 VDDA.t47 VDDA.t49 VDDA.t48 sky130_fd_pr__pfet_01v8 ad=0.25 pd=1.5 as=0 ps=0 w=1 l=0.15
X101 a_9540_6900.t1 a_6670_5090.t1 GNDA.t24 sky130_fd_pr__res_xhigh_po_0p35 l=0.86
X102 opamp_cell_4_0.n_left.t3 opamp_cell_4_0.n_left.t2 VDDA.t102 VDDA.t101 sky130_fd_pr__pfet_01v8 ad=0.25 pd=1.5 as=0.25 ps=1.5 w=1 l=0.15
X103 GNDA.t100 GNDA.t97 GNDA.t99 GNDA.t98 sky130_fd_pr__nfet_01v8 ad=1 pd=5 as=0 ps=0 w=2 l=0.6
X104 GNDA.t67 pfd_8_0.F_b.t4 pfd_8_0.F.t2 GNDA.t66 sky130_fd_pr__nfet_01v8 ad=0.4 pd=2.8 as=0.2 ps=1.4 w=1 l=0.15
X105 GNDA.t59 pfd_8_0.DOWN_input.t4 V_OUT.t4 GNDA.t58 sky130_fd_pr__nfet_01v8 ad=0.5 pd=2.5 as=0.5 ps=2.5 w=2 l=0.6
X106 pfd_8_0.QB_b.t0 pfd_8_0.QB.t5 a_n30_640.t0 VDDA.t20 sky130_fd_pr__pfet_01v8 ad=0.8 pd=4.8 as=0.4 ps=2.4 w=2 l=0.15
X107 VDDA.t30 pfd_8_0.opamp_out.t14 opamp_cell_4_0.VIN+.t0 VDDA.t29 sky130_fd_pr__pfet_01v8 ad=0.5 pd=2.5 as=0.5 ps=2.5 w=2 l=0.6
X108 VDDA.t46 VDDA.t43 VDDA.t45 VDDA.t44 sky130_fd_pr__pfet_01v8 ad=1 pd=5 as=0 ps=0 w=2 l=0.6
X109 pfd_8_0.opamp_out.t15 a_9540_6900.t0 sky130_fd_pr__cap_mim_m3_1 l=10 w=10
X110 VDDA.t74 pfd_8_0.Reset.t4 a_1390_640.t1 VDDA.t6 sky130_fd_pr__pfet_01v8 ad=0.8 pd=4.8 as=0.4 ps=2.4 w=2 l=0.15
X111 GNDA.t76 I_IN.t6 opamp_cell_4_0.VIN+.t5 GNDA.t75 sky130_fd_pr__nfet_01v8 ad=0.5 pd=2.5 as=0.5 ps=2.5 w=2 l=0.6
X112 pfd_8_0.UP_input.t1 pfd_8_0.UP.t5 VDDA.t124 VDDA.t123 sky130_fd_pr__pfet_01v8 ad=1 pd=5 as=1 ps=5 w=2 l=0.15
X113 GNDA.t147 a_6380_5710.t6 a_6670_5090.t3 GNDA.t146 sky130_fd_pr__nfet_01v8 ad=0.125 pd=1 as=0.125 ps=1 w=0.5 l=0.15
X114 GNDA.t5 pfd_8_0.QB.t6 pfd_8_0.QB_b.t1 GNDA.t4 sky130_fd_pr__nfet_01v8 ad=0.4 pd=2.8 as=0.2 ps=1.4 w=1 l=0.15
X115 GNDA.t1 I_IN.t4 I_IN.t5 GNDA.t0 sky130_fd_pr__nfet_01v8 ad=0.5 pd=2.5 as=0.5 ps=2.5 w=2 l=0.6
X116 GNDA.t21 pfd_8_0.Reset.t5 pfd_8_0.F_b.t2 GNDA.t20 sky130_fd_pr__nfet_01v8 ad=0.4 pd=2.8 as=0.2 ps=1.4 w=1 l=0.15
X117 GNDA.t9 a_6670_5090.t7 pfd_8_0.opamp_out.t1 GNDA.t8 sky130_fd_pr__nfet_01v8 ad=0.125 pd=1 as=0.125 ps=1 w=0.5 l=0.15
X118 a_6150_5090.t5 opamp_cell_4_0.VIN+.t7 a_6670_5090.t4 VDDA.t26 sky130_fd_pr__pfet_01v8 ad=0.25 pd=1.5 as=0.25 ps=1.5 w=1 l=0.15
X119 VDDA.t42 VDDA.t39 VDDA.t41 VDDA.t40 sky130_fd_pr__pfet_01v8 ad=1 pd=5 as=0 ps=0 w=2 l=0.6
X120 pfd_8_0.E.t1 pfd_8_0.QA_b.t6 GNDA.t37 GNDA.t36 sky130_fd_pr__nfet_01v8 ad=0.2 pd=1.4 as=0.4 ps=2.8 w=1 l=0.15
X121 VDDA.t110 opamp_cell_4_0.n_right.t8 pfd_8_0.opamp_out.t5 VDDA.t109 sky130_fd_pr__pfet_01v8 ad=0.25 pd=1.5 as=0.25 ps=1.5 w=1 l=0.15
X122 VDDA.t38 VDDA.t36 VDDA.t38 VDDA.t37 sky130_fd_pr__pfet_01v8 ad=0.625 pd=3 as=0 ps=0 w=2.5 l=0.5
X123 VDDA.t13 pfd_8_0.QA.t7 pfd_8_0.before_Reset.t1 VDDA.t12 sky130_fd_pr__pfet_01v8 ad=0.8 pd=4.8 as=0.4 ps=2.4 w=2 l=0.15
X124 opamp_cell_4_0.VIN+.t4 I_IN.t7 GNDA.t136 GNDA.t135 sky130_fd_pr__nfet_01v8 ad=0.5 pd=2.5 as=0.5 ps=2.5 w=2 l=0.6
X125 a_n30_640.t1 F_VCO.t0 VDDA.t117 VDDA.t27 sky130_fd_pr__pfet_01v8 ad=0.4 pd=2.4 as=0.8 ps=4.8 w=2 l=0.15
X126 pfd_8_0.UP_PFD_b.t0 pfd_8_0.QA.t8 VDDA.t1 VDDA.t0 sky130_fd_pr__pfet_01v8 ad=1 pd=5 as=1 ps=5 w=2 l=0.15
X127 VDDA.t127 pfd_8_0.E.t5 a_490_1400.t0 VDDA.t34 sky130_fd_pr__pfet_01v8 ad=0.8 pd=4.8 as=0.4 ps=2.4 w=2 l=0.15
X128 I_IN.t3 I_IN.t2 GNDA.t140 GNDA.t139 sky130_fd_pr__nfet_01v8 ad=0.5 pd=2.5 as=0.5 ps=2.5 w=2 l=0.6
X129 VDDA.t24 a_2200_190.t2 a_1870_190.t0 VDDA.t23 sky130_fd_pr__pfet_01v8 ad=0.8 pd=4.8 as=0.8 ps=4.8 w=2 l=0.15
X130 V_OUT.t1 pfd_8_0.UP_input.t6 VDDA.t86 VDDA.t85 sky130_fd_pr__pfet_01v8 ad=0.5 pd=2.5 as=0.5 ps=2.5 w=2 l=0.6
X131 pfd_8_0.QA_b.t2 F_REF.t1 GNDA.t43 GNDA.t42 sky130_fd_pr__nfet_01v8 ad=0.2 pd=1.4 as=0.4 ps=2.8 w=1 l=0.15
X132 a_6670_5090.t2 a_6380_5710.t7 GNDA.t145 GNDA.t144 sky130_fd_pr__nfet_01v8 ad=0.125 pd=1 as=0.125 ps=1 w=0.5 l=0.15
X133 pfd_8_0.QB_b.t2 F_VCO.t1 GNDA.t65 GNDA.t64 sky130_fd_pr__nfet_01v8 ad=0.2 pd=1.4 as=0.4 ps=2.8 w=1 l=0.15
X134 a_490_640.t1 pfd_8_0.QB_b.t5 pfd_8_0.QB.t0 VDDA.t33 sky130_fd_pr__pfet_01v8 ad=0.4 pd=2.4 as=0.8 ps=4.8 w=2 l=0.15
X135 GNDA.t50 a_2200_190.t3 a_1870_190.t1 GNDA.t49 sky130_fd_pr__nfet_01v8 ad=0.4 pd=2.8 as=0.4 ps=2.8 w=1 l=0.15
X136 VDDA.t9 opamp_cell_4_0.p_bias.t2 opamp_cell_4_0.p_bias.t3 VDDA.t8 sky130_fd_pr__pfet_01v8 ad=0.625 pd=3 as=0.625 ps=3 w=2.5 l=0.5
X137 pfd_8_0.DOWN_input.t5 pfd_8_0.DOWN.t2 sky130_fd_pr__cap_mim_m3_1 l=2.6 w=3.8
X138 pfd_8_0.QB.t1 pfd_8_0.QB_b.t6 GNDA.t149 GNDA.t148 sky130_fd_pr__nfet_01v8 ad=0.2 pd=1.4 as=0.4 ps=2.8 w=1 l=0.15
X139 pfd_8_0.DOWN_PFD_b.t1 pfd_8_0.QB.t7 VDDA.t2 VDDA.t0 sky130_fd_pr__pfet_01v8 ad=1 pd=5 as=1 ps=5 w=2 l=0.15
X140 a_6670_5090.t0 opamp_cell_4_0.VIN+.t8 a_6150_5090.t0 VDDA.t5 sky130_fd_pr__pfet_01v8 ad=0.25 pd=1.5 as=0.25 ps=1.5 w=1 l=0.15
X141 pfd_8_0.UP.t1 pfd_8_0.UP_PFD_b.t3 GNDA.t15 GNDA.t14 sky130_fd_pr__nfet_01v8 ad=0.5 pd=3 as=0.5 ps=3 w=1 l=0.15
X142 VDDA.t82 opamp_cell_4_0.p_bias.t0 opamp_cell_4_0.p_bias.t1 VDDA.t81 sky130_fd_pr__pfet_01v8 ad=0.625 pd=3 as=0.625 ps=3 w=2.5 l=0.5
X143 a_6500_6300.t5 opamp_cell_4_0.VIN+.t9 opamp_cell_4_0.n_right.t0 GNDA.t19 sky130_fd_pr__nfet_01v8 ad=0.125 pd=1 as=0.125 ps=1 w=0.5 l=0.15
X144 GNDA.t34 a_6670_5090.t8 pfd_8_0.opamp_out.t4 GNDA.t33 sky130_fd_pr__nfet_01v8 ad=0.125 pd=1 as=0.125 ps=1 w=0.5 l=0.15
X145 pfd_8_0.DOWN_PFD_b.t0 pfd_8_0.QB.t8 GNDA.t3 GNDA.t2 sky130_fd_pr__nfet_01v8 ad=0.5 pd=3 as=0.5 ps=3 w=1 l=0.15
X146 VDDA.t84 pfd_8_0.UP_input.t7 V_OUT.t0 VDDA.t83 sky130_fd_pr__pfet_01v8 ad=0.5 pd=2.5 as=0.5 ps=2.5 w=2 l=0.6
X147 pfd_8_0.E_b.t2 pfd_8_0.E.t6 GNDA.t142 GNDA.t141 sky130_fd_pr__nfet_01v8 ad=0.2 pd=1.4 as=0.4 ps=2.8 w=1 l=0.15
X148 VDDA.t19 opamp_cell_4_0.p_bias.t12 a_6150_5090.t1 VDDA.t18 sky130_fd_pr__pfet_01v8 ad=0.625 pd=3 as=0.625 ps=3 w=2.5 l=0.5
X149 GNDA.t96 GNDA.t93 GNDA.t95 GNDA.t94 sky130_fd_pr__nfet_01v8 ad=1 pd=5 as=0 ps=0 w=2 l=0.6
X150 pfd_8_0.DOWN_b.t1 GNDA.t155 pfd_8_0.DOWN_PFD_b.t3 VDDA.t99 sky130_fd_pr__pfet_01v8 ad=1 pd=5 as=1 ps=5 w=2 l=0.15
R0 a_6400_6270.n4 a_6400_6270.t12 317.317
R1 a_6400_6270.n2 a_6400_6270.t11 317.317
R2 a_6400_6270.n5 a_6400_6270.n4 257.067
R3 a_6400_6270.n3 a_6400_6270.n2 257.067
R4 a_6400_6270.n10 a_6400_6270.n9 257.067
R5 a_6400_6270.t0 a_6400_6270.n12 194.478
R6 a_6400_6270.n8 a_6400_6270.n7 152
R7 a_6400_6270.n12 a_6400_6270.n11 152
R8 a_6400_6270.n1 a_6400_6270.n0 120.981
R9 a_6400_6270.n7 a_6400_6270.n6 117.781
R10 a_6400_6270.n7 a_6400_6270.n1 108.8
R11 a_6400_6270.n8 a_6400_6270.n5 85.6894
R12 a_6400_6270.n11 a_6400_6270.n3 85.6894
R13 a_6400_6270.n11 a_6400_6270.n10 85.6894
R14 a_6400_6270.n9 a_6400_6270.n8 85.6894
R15 a_6400_6270.n4 a_6400_6270.t10 60.2505
R16 a_6400_6270.n5 a_6400_6270.t5 60.2505
R17 a_6400_6270.n2 a_6400_6270.t9 60.2505
R18 a_6400_6270.n3 a_6400_6270.t7 60.2505
R19 a_6400_6270.n10 a_6400_6270.t3 60.2505
R20 a_6400_6270.n9 a_6400_6270.t1 60.2505
R21 a_6400_6270.n6 a_6400_6270.t2 24.0005
R22 a_6400_6270.n6 a_6400_6270.t6 24.0005
R23 a_6400_6270.n0 a_6400_6270.t8 24.0005
R24 a_6400_6270.n0 a_6400_6270.t4 24.0005
R25 a_6400_6270.n12 a_6400_6270.n1 3.2005
R26 GNDA.n392 GNDA.n391 19798.9
R27 GNDA.t57 GNDA.n242 6651.75
R28 GNDA.t38 GNDA.n135 5107.62
R29 GNDA.n243 GNDA.t57 3567.2
R30 GNDA.t55 GNDA.t66 2577.14
R31 GNDA.t148 GNDA.t4 2577.14
R32 GNDA.t44 GNDA.t2 2451.43
R33 GNDA.t73 GNDA.t70 1822.86
R34 GNDA.t40 GNDA.n395 1665.71
R35 GNDA.n398 GNDA.n23 1634.29
R36 GNDA.t70 GNDA.n137 1414.29
R37 GNDA.n138 GNDA.t44 1414.29
R38 GNDA.t152 GNDA.n307 1397.16
R39 GNDA.t47 GNDA.n397 1225.71
R40 GNDA.t49 GNDA.n396 1225.71
R41 GNDA.n257 GNDA.n256 1186
R42 GNDA.n58 GNDA.n50 1186
R43 GNDA.n252 GNDA.n251 1186
R44 GNDA.n247 GNDA.n246 1186
R45 GNDA.n137 GNDA.t38 1037.14
R46 GNDA.n138 GNDA.t73 1037.14
R47 GNDA.t2 GNDA.n23 1037.14
R48 GNDA.n398 GNDA.t47 848.572
R49 GNDA.n397 GNDA.t49 848.572
R50 GNDA.n396 GNDA.t40 848.572
R51 GNDA.n395 GNDA.t20 848.572
R52 GNDA.t53 GNDA.n394 848.572
R53 GNDA.n394 GNDA.t150 848.572
R54 GNDA.t64 GNDA.n392 848.572
R55 GNDA.t58 GNDA.t115 733.333
R56 GNDA.t62 GNDA.t58 733.333
R57 GNDA.t102 GNDA.t62 733.333
R58 GNDA.t75 GNDA.t112 733.333
R59 GNDA.t135 GNDA.t75 733.333
R60 GNDA.t98 GNDA.t135 733.333
R61 GNDA.t0 GNDA.t106 733.333
R62 GNDA.t139 GNDA.t0 733.333
R63 GNDA.t94 GNDA.t139 733.333
R64 GNDA.n242 GNDA.t115 700
R65 GNDA.n215 GNDA.t102 700
R66 GNDA.n215 GNDA.t112 700
R67 GNDA.n194 GNDA.t98 700
R68 GNDA.n194 GNDA.t106 700
R69 GNDA.n135 GNDA.t94 700
R70 GNDA.t20 GNDA.t55 691.429
R71 GNDA.t66 GNDA.t53 691.429
R72 GNDA.t150 GNDA.t148 691.429
R73 GNDA.t4 GNDA.t64 691.429
R74 GNDA.n193 GNDA.n192 669.307
R75 GNDA.n196 GNDA.n195 669.307
R76 GNDA.n214 GNDA.n213 669.307
R77 GNDA.n217 GNDA.n216 669.307
R78 GNDA.n241 GNDA.n240 669.307
R79 GNDA.n235 GNDA.n77 669.307
R80 GNDA.n356 GNDA.n355 585.003
R81 GNDA.n394 GNDA.n393 585.003
R82 GNDA.n391 GNDA.n390 585.001
R83 GNDA.n358 GNDA.n357 585.001
R84 GNDA.n353 GNDA.n352 585.001
R85 GNDA.n309 GNDA.n308 585.001
R86 GNDA.n311 GNDA.n310 585.001
R87 GNDA.n137 GNDA.n136 585.001
R88 GNDA.n139 GNDA.n138 585.001
R89 GNDA.n145 GNDA.n23 585.001
R90 GNDA.n399 GNDA.n398 585.001
R91 GNDA.n397 GNDA.n19 585.001
R92 GNDA.n396 GNDA.n16 585.001
R93 GNDA.n395 GNDA.n13 585.001
R94 GNDA.n392 GNDA.n2 585.001
R95 GNDA.n315 GNDA.n314 585.001
R96 GNDA.n313 GNDA.n47 585.001
R97 GNDA.n312 GNDA.n44 585.001
R98 GNDA.n255 GNDA.n254 585.001
R99 GNDA.n307 GNDA.n306 585.001
R100 GNDA.n239 GNDA.n78 585
R101 GNDA.n237 GNDA.n236 585
R102 GNDA.n93 GNDA.n89 585
R103 GNDA.n91 GNDA.n88 585
R104 GNDA.n110 GNDA.n106 585
R105 GNDA.n108 GNDA.n105 585
R106 GNDA.n134 GNDA.n133 585
R107 GNDA.n135 GNDA.n134 585
R108 GNDA.n132 GNDA.n125 585
R109 GNDA.n130 GNDA.n129 585
R110 GNDA.n128 GNDA.n124 585
R111 GNDA.n135 GNDA.n124 585
R112 GNDA.n143 GNDA.t155 566.966
R113 GNDA.n243 GNDA.t24 340.536
R114 GNDA.n107 GNDA.t105 336.329
R115 GNDA.n107 GNDA.t97 336.329
R116 GNDA.n90 GNDA.t111 336.329
R117 GNDA.n90 GNDA.t101 336.329
R118 GNDA.n255 GNDA.t143 333.075
R119 GNDA.n127 GNDA.t93 320.7
R120 GNDA.n234 GNDA.t114 320.7
R121 GNDA.n244 GNDA.t108 304.634
R122 GNDA.n258 GNDA.t127 304.634
R123 GNDA.n59 GNDA.t117 304.634
R124 GNDA.n250 GNDA.t124 304.634
R125 GNDA.t141 GNDA.t45 296.906
R126 GNDA.t68 GNDA.t12 296.906
R127 GNDA.n253 GNDA.t121 292.584
R128 GNDA.n305 GNDA.t131 292.584
R129 GNDA.t91 GNDA.n252 290.373
R130 GNDA.t109 GNDA.n247 281.832
R131 GNDA.n256 GNDA.t128 281.832
R132 GNDA.t30 GNDA.t91 264.752
R133 GNDA.t132 GNDA.n50 256.212
R134 GNDA.n242 GNDA.n241 250.349
R135 GNDA.n242 GNDA.n77 250.349
R136 GNDA.n215 GNDA.n214 250.349
R137 GNDA.n216 GNDA.n215 250.349
R138 GNDA.n194 GNDA.n193 250.349
R139 GNDA.n195 GNDA.n194 250.349
R140 GNDA.n135 GNDA.n123 250.349
R141 GNDA.n246 GNDA.t110 245
R142 GNDA.n257 GNDA.t130 245
R143 GNDA.n58 GNDA.t120 245
R144 GNDA.n251 GNDA.t126 245
R145 GNDA.t85 GNDA.t125 230.59
R146 GNDA.t8 GNDA.t109 222.05
R147 GNDA.t6 GNDA.t8 222.05
R148 GNDA.t33 GNDA.t6 222.05
R149 GNDA.t28 GNDA.t33 222.05
R150 GNDA.t128 GNDA.t28 222.05
R151 GNDA.n256 GNDA.n255 222.05
R152 GNDA.t25 GNDA.t72 222.05
R153 GNDA.t146 GNDA.t144 222.05
R154 GNDA.t16 GNDA.t118 222.05
R155 GNDA.t122 GNDA.t19 213.51
R156 GNDA.t87 GNDA.t137 213.51
R157 GNDA.t51 GNDA.t152 210.007
R158 GNDA.n312 GNDA.t31 206.387
R159 GNDA.n260 GNDA.n74 204.201
R160 GNDA.n61 GNDA.n56 204.201
R161 GNDA.n60 GNDA.n57 204.201
R162 GNDA.n249 GNDA.n248 204.201
R163 GNDA.n259 GNDA.n76 204.201
R164 GNDA.n245 GNDA.n75 204.201
R165 GNDA.n3 GNDA.t5 198.058
R166 GNDA.n440 GNDA.t149 198.058
R167 GNDA.n428 GNDA.t67 198.058
R168 GNDA.n11 GNDA.t56 198.058
R169 GNDA.n384 GNDA.t13 198.058
R170 GNDA.n26 GNDA.t69 198.058
R171 GNDA.n370 GNDA.t46 198.058
R172 GNDA.n365 GNDA.t142 198.058
R173 GNDA.n106 GNDA.n105 197
R174 GNDA.n89 GNDA.n88 197
R175 GNDA.n236 GNDA.n78 197
R176 GNDA.n134 GNDA.n125 197
R177 GNDA.n129 GNDA.n124 197
R178 GNDA.t89 GNDA.t71 196.429
R179 GNDA.n192 GNDA.n104 185
R180 GNDA.n196 GNDA.n104 185
R181 GNDA.n213 GNDA.n87 185
R182 GNDA.n217 GNDA.n87 185
R183 GNDA.n240 GNDA.n79 185
R184 GNDA.n235 GNDA.n79 185
R185 GNDA.n133 GNDA.n126 185
R186 GNDA.n128 GNDA.n126 185
R187 GNDA.n314 GNDA.t14 170.179
R188 GNDA.n313 GNDA.t10 170.179
R189 GNDA.n192 GNDA.n107 166.63
R190 GNDA.n213 GNDA.n90 166.63
R191 GNDA.n247 GNDA.n243 153.727
R192 GNDA.t71 GNDA.t83 145.186
R193 GNDA.n311 GNDA.t26 141.212
R194 GNDA.n309 GNDA.t18 141.212
R195 GNDA.n254 GNDA.t123 134.501
R196 GNDA.n306 GNDA.t134 134.501
R197 GNDA.n7 GNDA.t151 130.713
R198 GNDA.n390 GNDA.t43 130.001
R199 GNDA.n358 GNDA.t23 130.001
R200 GNDA.n352 GNDA.t61 130.001
R201 GNDA.n308 GNDA.t27 130.001
R202 GNDA.n310 GNDA.t32 130.001
R203 GNDA.n2 GNDA.t65 130.001
R204 GNDA.n13 GNDA.t21 130.001
R205 GNDA.n16 GNDA.t41 130.001
R206 GNDA.n19 GNDA.t50 130.001
R207 GNDA.n399 GNDA.t48 130.001
R208 GNDA.n354 GNDA.t37 130.001
R209 GNDA.n28 GNDA.t154 130.001
R210 GNDA.n8 GNDA.t54 130.001
R211 GNDA.t19 GNDA.t81 128.107
R212 GNDA.t137 GNDA.t79 128.107
R213 GNDA.n44 GNDA.t11 122.501
R214 GNDA.n47 GNDA.t15 122.501
R215 GNDA.n315 GNDA.t52 122.501
R216 GNDA.n145 GNDA.t3 122.501
R217 GNDA.n139 GNDA.t74 122.501
R218 GNDA.n136 GNDA.t39 122.501
R219 GNDA.n314 GNDA.t51 112.246
R220 GNDA.t14 GNDA.n313 112.246
R221 GNDA.t10 GNDA.n312 112.246
R222 GNDA.t125 GNDA.t77 111.025
R223 GNDA.t77 GNDA.t146 111.025
R224 GNDA.n357 GNDA.n353 101.382
R225 GNDA.n265 GNDA.n72 97.8707
R226 GNDA.n272 GNDA.n69 97.8707
R227 GNDA.n279 GNDA.n66 97.8707
R228 GNDA.n286 GNDA.n63 97.8707
R229 GNDA.n294 GNDA.n54 97.8707
R230 GNDA.t31 GNDA.n311 97.7622
R231 GNDA.t26 GNDA.n309 97.7622
R232 GNDA.n353 GNDA.t60 97.7622
R233 GNDA.n357 GNDA.t22 97.7622
R234 GNDA.t36 GNDA.n356 97.7622
R235 GNDA.n356 GNDA.t153 97.7622
R236 GNDA.n391 GNDA.t42 97.7622
R237 GNDA.t81 GNDA.t25 93.9446
R238 GNDA.n224 GNDA.n223 92.2612
R239 GNDA.n232 GNDA.n231 92.2612
R240 GNDA.n210 GNDA.n209 92.2612
R241 GNDA.n203 GNDA.n99 92.2612
R242 GNDA.n189 GNDA.n188 92.2612
R243 GNDA.n182 GNDA.n117 92.2612
R244 GNDA.n109 GNDA.n104 91.3721
R245 GNDA.n191 GNDA.n190 91.3721
R246 GNDA.n190 GNDA.n103 91.3721
R247 GNDA.n92 GNDA.n87 91.3721
R248 GNDA.n212 GNDA.n211 91.3721
R249 GNDA.n211 GNDA.n86 91.3721
R250 GNDA.n238 GNDA.n79 90.7567
R251 GNDA.n131 GNDA.n126 90.7567
R252 GNDA.n307 GNDA.n50 85.4042
R253 GNDA.n241 GNDA.n78 84.306
R254 GNDA.n236 GNDA.n77 84.306
R255 GNDA.n214 GNDA.n89 84.306
R256 GNDA.n216 GNDA.n88 84.306
R257 GNDA.n193 GNDA.n106 84.306
R258 GNDA.n195 GNDA.n105 84.306
R259 GNDA.n125 GNDA.n123 84.306
R260 GNDA.n129 GNDA.n123 84.306
R261 GNDA.n249 GNDA.n61 83.2005
R262 GNDA.n61 GNDA.n60 83.2005
R263 GNDA.t18 GNDA.t60 79.6582
R264 GNDA.t22 GNDA.t141 79.6582
R265 GNDA.t45 GNDA.t36 79.6582
R266 GNDA.t153 GNDA.t68 79.6582
R267 GNDA.t12 GNDA.t42 79.6582
R268 GNDA.t83 GNDA.t30 76.8638
R269 GNDA.n260 GNDA.n75 66.5605
R270 GNDA.n260 GNDA.n259 66.5605
R271 GNDA.n261 GNDA.n260 65.9634
R272 GNDA.n390 GNDA.n389 60.29
R273 GNDA.n359 GNDA.n358 60.29
R274 GNDA.n352 GNDA.n351 60.29
R275 GNDA.n308 GNDA.n38 60.29
R276 GNDA.n310 GNDA.n40 60.29
R277 GNDA.n400 GNDA.n399 60.29
R278 GNDA.n407 GNDA.n19 60.29
R279 GNDA.n413 GNDA.n16 60.29
R280 GNDA.n420 GNDA.n13 60.29
R281 GNDA.n448 GNDA.n2 60.29
R282 GNDA.n74 GNDA.t7 60.0005
R283 GNDA.n74 GNDA.t34 60.0005
R284 GNDA.n56 GNDA.t145 60.0005
R285 GNDA.n56 GNDA.t138 60.0005
R286 GNDA.n57 GNDA.t17 60.0005
R287 GNDA.n57 GNDA.t119 60.0005
R288 GNDA.n248 GNDA.t126 60.0005
R289 GNDA.n248 GNDA.t147 60.0005
R290 GNDA.n76 GNDA.t29 60.0005
R291 GNDA.n76 GNDA.t129 60.0005
R292 GNDA.t110 GNDA.n245 60.0005
R293 GNDA.n245 GNDA.t9 60.0005
R294 GNDA.n329 GNDA.n44 59.5478
R295 GNDA.n322 GNDA.n47 59.5478
R296 GNDA.n316 GNDA.n315 59.5478
R297 GNDA.n164 GNDA.n139 58.9809
R298 GNDA.n152 GNDA.n145 58.9809
R299 GNDA.n136 GNDA.n119 58.9809
R300 GNDA.n376 GNDA.n28 54.4005
R301 GNDA.n354 GNDA.n29 54.4005
R302 GNDA.n433 GNDA.n8 54.4005
R303 GNDA.n435 GNDA.n7 54.4005
R304 GNDA.t35 GNDA.t16 52.9508
R305 GNDA.n252 GNDA.t85 51.2427
R306 GNDA.n290 GNDA.n61 41.6005
R307 GNDA.n177 GNDA.n176 41.3005
R308 GNDA.t79 GNDA.t35 40.9943
R309 GNDA.n262 GNDA.n261 39.4985
R310 GNDA.n389 GNDA.n0 33.0991
R311 GNDA.n449 GNDA.n448 33.0991
R312 GNDA.n224 GNDA.n222 32.0005
R313 GNDA.n222 GNDA.n83 32.0005
R314 GNDA.n230 GNDA.n229 32.0005
R315 GNDA.n229 GNDA.n81 32.0005
R316 GNDA.n225 GNDA.n81 32.0005
R317 GNDA.n94 GNDA.n85 32.0005
R318 GNDA.n208 GNDA.n97 32.0005
R319 GNDA.n204 GNDA.n97 32.0005
R320 GNDA.n204 GNDA.n203 32.0005
R321 GNDA.n202 GNDA.n100 32.0005
R322 GNDA.n198 GNDA.n100 32.0005
R323 GNDA.n197 GNDA.n102 32.0005
R324 GNDA.n111 GNDA.n102 32.0005
R325 GNDA.n187 GNDA.n115 32.0005
R326 GNDA.n183 GNDA.n115 32.0005
R327 GNDA.n181 GNDA.n118 32.0005
R328 GNDA.n262 GNDA.n71 32.0005
R329 GNDA.n267 GNDA.n71 32.0005
R330 GNDA.n268 GNDA.n267 32.0005
R331 GNDA.n269 GNDA.n268 32.0005
R332 GNDA.n269 GNDA.n68 32.0005
R333 GNDA.n274 GNDA.n68 32.0005
R334 GNDA.n275 GNDA.n274 32.0005
R335 GNDA.n276 GNDA.n275 32.0005
R336 GNDA.n276 GNDA.n65 32.0005
R337 GNDA.n281 GNDA.n65 32.0005
R338 GNDA.n282 GNDA.n281 32.0005
R339 GNDA.n283 GNDA.n282 32.0005
R340 GNDA.n283 GNDA.n62 32.0005
R341 GNDA.n288 GNDA.n62 32.0005
R342 GNDA.n289 GNDA.n288 32.0005
R343 GNDA.n291 GNDA.n53 32.0005
R344 GNDA.n296 GNDA.n53 32.0005
R345 GNDA.n297 GNDA.n296 32.0005
R346 GNDA.n302 GNDA.n297 32.0005
R347 GNDA.n302 GNDA.n301 32.0005
R348 GNDA.n301 GNDA.n300 32.0005
R349 GNDA.n316 GNDA.n48 32.0005
R350 GNDA.n320 GNDA.n48 32.0005
R351 GNDA.n321 GNDA.n320 32.0005
R352 GNDA.n323 GNDA.n45 32.0005
R353 GNDA.n327 GNDA.n45 32.0005
R354 GNDA.n328 GNDA.n327 32.0005
R355 GNDA.n330 GNDA.n42 32.0005
R356 GNDA.n334 GNDA.n42 32.0005
R357 GNDA.n335 GNDA.n334 32.0005
R358 GNDA.n336 GNDA.n335 32.0005
R359 GNDA.n340 GNDA.n339 32.0005
R360 GNDA.n341 GNDA.n340 32.0005
R361 GNDA.n345 GNDA.n344 32.0005
R362 GNDA.n346 GNDA.n345 32.0005
R363 GNDA.n346 GNDA.n36 32.0005
R364 GNDA.n350 GNDA.n35 32.0005
R365 GNDA.n360 GNDA.n35 32.0005
R366 GNDA.n364 GNDA.n33 32.0005
R367 GNDA.n365 GNDA.n364 32.0005
R368 GNDA.n366 GNDA.n365 32.0005
R369 GNDA.n366 GNDA.n31 32.0005
R370 GNDA.n370 GNDA.n31 32.0005
R371 GNDA.n371 GNDA.n370 32.0005
R372 GNDA.n372 GNDA.n371 32.0005
R373 GNDA.n378 GNDA.n377 32.0005
R374 GNDA.n378 GNDA.n26 32.0005
R375 GNDA.n382 GNDA.n26 32.0005
R376 GNDA.n383 GNDA.n382 32.0005
R377 GNDA.n384 GNDA.n383 32.0005
R378 GNDA.n384 GNDA.n24 32.0005
R379 GNDA.n388 GNDA.n24 32.0005
R380 GNDA.n172 GNDA.n171 32.0005
R381 GNDA.n171 GNDA.n170 32.0005