* PEX produced on Fri Feb 21 04:03:23 PM CET 2025 using /foss/tools/osic-multitool/iic-pex.sh with m=3 and s=1
* NGSPICE file created from pfd_cp_lf_magic.ext - technology: sky130A

.subckt pfd_cp_lf_magic V_OUT VDDA GNDA F_REF F_VCO I_IN
X0 a_6400_6270.t4 a_6400_6270.t3 GNDA.t96 GNDA.t95 sky130_fd_pr__nfet_01v8 ad=0.3125 pd=1.75 as=0.3125 ps=1.75 w=1.25 l=0.5
X1 VDDA.t81 opamp_cell_4_0.n_left.t6 opamp_cell_4_0.n_right.t2 VDDA.t80 sky130_fd_pr__pfet_01v8 ad=0.25 pd=1.5 as=0.25 ps=1.5 w=1 l=0.15
X2 VDDA.t89 opamp_cell_4_0.n_right.t5 pfd_8_0.opamp_out.t8 VDDA.t88 sky130_fd_pr__pfet_01v8 ad=0.25 pd=1.5 as=0.25 ps=1.5 w=1 l=0.15
X3 GNDA.t16 a_6380_5710.t2 a_6380_5710.t3 GNDA.t15 sky130_fd_pr__nfet_01v8 ad=0.125 pd=1 as=0.125 ps=1 w=0.5 l=0.15
X4 a_6500_6300.t12 a_6500_6300.t10 a_6500_6300.t11 GNDA.t41 sky130_fd_pr__nfet_01v8 ad=0.25 pd=2 as=0 ps=0 w=0.5 l=0.15
X5 pfd_8_0.DOWN_b.t1 VDDA.t129 pfd_8_0.DOWN_PFD_b.t3 GNDA.t55 sky130_fd_pr__nfet_01v8 ad=0.5 pd=3 as=0.5 ps=3 w=1 l=0.15
X6 a_870_1400.t1 pfd_8_0.QA_b.t3 VDDA.t18 VDDA.t17 sky130_fd_pr__pfet_01v8 ad=0.4 pd=2.4 as=0.8 ps=4.8 w=2 l=0.15
X7 a_6500_6300.t7 a_6400_6270.t9 GNDA.t94 GNDA.t93 sky130_fd_pr__nfet_01v8 ad=0.3125 pd=1.75 as=0.3125 ps=1.75 w=1.25 l=0.5
X8 a_6150_5090.t5 opamp_cell_4_0.p_bias.t9 VDDA.t67 VDDA.t66 sky130_fd_pr__pfet_01v8 ad=0.625 pd=3 as=0.625 ps=3 w=2.5 l=0.5
X9 pfd_8_0.DOWN.t2 pfd_8_0.DOWN_b.t2 VDDA.t72 VDDA.t37 sky130_fd_pr__pfet_01v8 ad=1 pd=5 as=1 ps=5 w=2 l=0.15
X10 V_OUT.t4 pfd_8_0.UP_input.t3 VDDA.t55 VDDA.t54 sky130_fd_pr__pfet_01v8 ad=0.5 pd=2.5 as=0.5 ps=2.5 w=2 l=0.6
X11 opamp_cell_4_0.p_bias.t7 opamp_cell_4_0.p_bias.t6 VDDA.t61 VDDA.t60 sky130_fd_pr__pfet_01v8 ad=0.625 pd=3 as=0.625 ps=3 w=2.5 l=0.5
X12 a_6150_5090.t12 V_OUT.t8 a_6380_5710.t5 VDDA.t59 sky130_fd_pr__pfet_01v8 ad=0.25 pd=1.5 as=0.25 ps=1.5 w=1 l=0.15
X13 VDDA.t123 VDDA.t120 VDDA.t122 VDDA.t121 sky130_fd_pr__pfet_01v8 ad=0.5 pd=3 as=0 ps=0 w=1 l=0.15
X14 a_2350_1400.t0 pfd_8_0.before_Reset.t3 GNDA.t71 GNDA.t70 sky130_fd_pr__nfet_01v8 ad=0.4 pd=2.8 as=0.4 ps=2.8 w=1 l=0.15
X15 pfd_8_0.DOWN.t1 pfd_8_0.DOWN_b.t3 GNDA.t66 GNDA.t65 sky130_fd_pr__nfet_01v8 ad=0.5 pd=3 as=0.5 ps=3 w=1 l=0.15
X16 GNDA.t138 GNDA.t135 GNDA.t137 GNDA.t136 sky130_fd_pr__nfet_01v8 ad=0.625 pd=3.5 as=0 ps=0 w=1.25 l=0.5
X17 a_n30_1400.t1 F_REF.t0 VDDA.t20 VDDA.t19 sky130_fd_pr__pfet_01v8 ad=0.4 pd=2.4 as=0.8 ps=4.8 w=2 l=0.15
X18 pfd_8_0.opamp_out.t3 a_6670_5090.t5 GNDA.t52 GNDA.t51 sky130_fd_pr__nfet_01v8 ad=0.125 pd=1 as=0.125 ps=1 w=0.5 l=0.15
X19 GNDA.t36 pfd_8_0.QA.t3 pfd_8_0.QA_b.t2 GNDA.t35 sky130_fd_pr__nfet_01v8 ad=0.4 pd=2.8 as=0.2 ps=1.4 w=1 l=0.15
X20 GNDA.t92 a_6400_6270.t10 a_6500_6300.t6 GNDA.t91 sky130_fd_pr__nfet_01v8 ad=0.3125 pd=1.75 as=0.3125 ps=1.75 w=1.25 l=0.5
X21 pfd_8_0.DOWN_input.t1 pfd_8_0.DOWN_b.t4 I_IN.t5 VDDA.t12 sky130_fd_pr__pfet_01v8 ad=1 pd=5 as=1 ps=5 w=2 l=0.15
X22 pfd_8_0.opamp_out.t7 opamp_cell_4_0.n_right.t6 VDDA.t87 VDDA.t86 sky130_fd_pr__pfet_01v8 ad=0.25 pd=1.5 as=0.25 ps=1.5 w=1 l=0.15
X23 a_1910_2020.t0 pfd_8_0.QB.t3 GNDA.t34 GNDA.t33 sky130_fd_pr__nfet_01v8 ad=0.2 pd=1.4 as=0.4 ps=2.8 w=1 l=0.15
X24 a_6500_6300.t9 a_6500_6300.t8 a_6500_6300.t9 GNDA.t30 sky130_fd_pr__nfet_01v8 ad=0.125 pd=1 as=0 ps=0 w=0.5 l=0.15
X25 pfd_8_0.UP.t1 pfd_8_0.UP_PFD_b.t2 VDDA.t126 VDDA.t73 sky130_fd_pr__pfet_01v8 ad=1 pd=5 as=1 ps=5 w=2 l=0.15
X26 pfd_8_0.UP_input.t2 pfd_8_0.UP.t2 pfd_8_0.opamp_out.t4 GNDA.t80 sky130_fd_pr__nfet_01v8 ad=0.5 pd=3 as=0.5 ps=3 w=1 l=0.15
X27 pfd_8_0.QA.t1 pfd_8_0.QA_b.t4 GNDA.t147 GNDA.t146 sky130_fd_pr__nfet_01v8 ad=0.2 pd=1.4 as=0.4 ps=2.8 w=1 l=0.15
X28 pfd_8_0.opamp_out.t10 a_9540_3974.t0 sky130_fd_pr__cap_mim_m3_1 l=10 w=10
X29 pfd_8_0.DOWN_input.t0 pfd_8_0.DOWN.t3 I_IN.t0 GNDA.t67 sky130_fd_pr__nfet_01v8 ad=0.5 pd=3 as=0.5 ps=3 w=1 l=0.15
X30 a_1390_1400.t1 pfd_8_0.E.t3 pfd_8_0.E_b.t1 VDDA.t15 sky130_fd_pr__pfet_01v8 ad=0.4 pd=2.4 as=0.8 ps=4.8 w=2 l=0.15
X31 a_870_640.t1 pfd_8_0.QB_b.t3 VDDA.t33 VDDA.t17 sky130_fd_pr__pfet_01v8 ad=0.4 pd=2.4 as=0.8 ps=4.8 w=2 l=0.15
X32 VDDA.t119 VDDA.t117 VDDA.t119 VDDA.t118 sky130_fd_pr__pfet_01v8 ad=0.25 pd=1.5 as=0 ps=0 w=1 l=0.15
X33 VDDA.t128 a_2530_190.t2 a_2200_190.t1 VDDA.t127 sky130_fd_pr__pfet_01v8 ad=0.8 pd=4.8 as=0.8 ps=4.8 w=2 l=0.15
X34 GNDA.t134 GNDA.t131 GNDA.t133 GNDA.t132 sky130_fd_pr__nfet_01v8 ad=0.25 pd=2 as=0 ps=0 w=0.5 l=0.15
X35 pfd_8_0.DOWN_input.t2 pfd_8_0.DOWN_b.t5 GNDA.t49 GNDA.t48 sky130_fd_pr__nfet_01v8 ad=0.5 pd=3 as=0.5 ps=3 w=1 l=0.15
X36 GNDA.t155 a_2530_190.t3 a_2200_190.t0 GNDA.t154 sky130_fd_pr__nfet_01v8 ad=0.4 pd=2.8 as=0.4 ps=2.8 w=1 l=0.15
X37 pfd_8_0.F.t2 pfd_8_0.QB_b.t4 GNDA.t45 GNDA.t44 sky130_fd_pr__nfet_01v8 ad=0.2 pd=1.4 as=0.4 ps=2.8 w=1 l=0.15
X38 pfd_8_0.UP_b.t0 pfd_8_0.UP.t3 GNDA.t54 GNDA.t53 sky130_fd_pr__nfet_01v8 ad=0.5 pd=3 as=0.5 ps=3 w=1 l=0.15
X39 GNDA.t143 pfd_8_0.E_b.t3 pfd_8_0.E.t2 GNDA.t142 sky130_fd_pr__nfet_01v8 ad=0.4 pd=2.8 as=0.2 ps=1.4 w=1 l=0.15
X40 a_1390_640.t1 pfd_8_0.F.t3 pfd_8_0.F_b.t1 VDDA.t15 sky130_fd_pr__pfet_01v8 ad=0.4 pd=2.4 as=0.8 ps=4.8 w=2 l=0.15
X41 VDDA.t116 VDDA.t113 VDDA.t115 VDDA.t114 sky130_fd_pr__pfet_01v8 ad=0.5 pd=3 as=0 ps=0 w=1 l=0.15
X42 a_2350_1400.t1 pfd_8_0.before_Reset.t4 VDDA.t71 VDDA.t70 sky130_fd_pr__pfet_01v8 ad=0.8 pd=4.8 as=0.8 ps=4.8 w=2 l=0.15
X43 pfd_8_0.F_b.t2 pfd_8_0.F.t4 GNDA.t22 GNDA.t21 sky130_fd_pr__nfet_01v8 ad=0.2 pd=1.4 as=0.4 ps=2.8 w=1 l=0.15
X44 VDDA.t34 pfd_8_0.F.t5 a_490_640.t1 VDDA.t31 sky130_fd_pr__pfet_01v8 ad=0.8 pd=4.8 as=0.4 ps=2.4 w=2 l=0.15
X45 pfd_8_0.QA_b.t1 pfd_8_0.QA.t4 a_n30_1400.t0 VDDA.t2 sky130_fd_pr__pfet_01v8 ad=0.8 pd=4.8 as=0.4 ps=2.4 w=2 l=0.15
X46 GNDA.t130 GNDA.t128 GNDA.t130 GNDA.t129 sky130_fd_pr__nfet_01v8 ad=0.125 pd=1 as=0 ps=0 w=0.5 l=0.15
X47 opamp_cell_4_0.n_right.t0 opamp_cell_4_0.VIN+.t6 a_6500_6300.t0 GNDA.t50 sky130_fd_pr__nfet_01v8 ad=0.125 pd=1 as=0.125 ps=1 w=0.5 l=0.15
X48 VDDA.t112 VDDA.t110 VDDA.t112 VDDA.t111 sky130_fd_pr__pfet_01v8 ad=0.5 pd=2.5 as=0 ps=0 w=2 l=0.6
X49 GNDA.t75 pfd_8_0.F.t6 pfd_8_0.QB.t0 GNDA.t74 sky130_fd_pr__nfet_01v8 ad=0.4 pd=2.8 as=0.2 ps=1.4 w=1 l=0.15
X50 pfd_8_0.before_Reset.t1 pfd_8_0.QB.t4 VDDA.t22 VDDA.t21 sky130_fd_pr__pfet_01v8 ad=0.4 pd=2.4 as=0.805 ps=5 w=2 l=0.15
X51 GNDA.t127 GNDA.t125 GNDA.t127 GNDA.t126 sky130_fd_pr__nfet_01v8 ad=0.3125 pd=1.75 as=0 ps=0 w=1.25 l=0.5
X52 a_6150_5090.t10 a_6150_5090.t9 a_6150_5090.t10 VDDA.t16 sky130_fd_pr__pfet_01v8 ad=0.25 pd=1.5 as=0 ps=0 w=1 l=0.15
X53 opamp_cell_4_0.n_right.t3 opamp_cell_4_0.n_left.t7 VDDA.t79 VDDA.t78 sky130_fd_pr__pfet_01v8 ad=0.25 pd=1.5 as=0.25 ps=1.5 w=1 l=0.15
X54 pfd_8_0.UP_input.t0 pfd_8_0.UP_b.t3 pfd_8_0.opamp_out.t2 VDDA.t12 sky130_fd_pr__pfet_01v8 ad=1 pd=5 as=1 ps=5 w=2 l=0.15
X55 a_490_1400.t1 pfd_8_0.QA_b.t5 pfd_8_0.QA.t0 VDDA.t125 sky130_fd_pr__pfet_01v8 ad=0.4 pd=2.4 as=0.8 ps=4.8 w=2 l=0.15
X56 a_6380_5710.t1 a_6380_5710.t0 GNDA.t58 GNDA.t57 sky130_fd_pr__nfet_01v8 ad=0.125 pd=1 as=0.125 ps=1 w=0.5 l=0.15
X57 GNDA.t8 pfd_8_0.Reset.t2 pfd_8_0.E_b.t0 GNDA.t7 sky130_fd_pr__nfet_01v8 ad=0.4 pd=2.8 as=0.2 ps=1.4 w=1 l=0.15
X58 opamp_cell_4_0.p_bias.t5 opamp_cell_4_0.p_bias.t4 VDDA.t40 VDDA.t39 sky130_fd_pr__pfet_01v8 ad=0.625 pd=3 as=0.625 ps=3 w=2.5 l=0.5
X59 opamp_cell_4_0.VIN+.t5 pfd_8_0.opamp_out.t11 VDDA.t6 VDDA.t5 sky130_fd_pr__pfet_01v8 ad=0.5 pd=2.5 as=0.5 ps=2.5 w=2 l=0.6
X60 a_2530_190.t0 a_2350_1400.t2 GNDA.t14 GNDA.t13 sky130_fd_pr__nfet_01v8 ad=0.4 pd=2.8 as=0.4 ps=2.8 w=1 l=0.15
X61 a_6150_5090.t4 opamp_cell_4_0.p_bias.t10 VDDA.t4 VDDA.t3 sky130_fd_pr__pfet_01v8 ad=0.625 pd=3 as=0.625 ps=3 w=2.5 l=0.5
X62 VDDA.t109 VDDA.t107 VDDA.t109 VDDA.t108 sky130_fd_pr__pfet_01v8 ad=0.5 pd=2.5 as=0 ps=0 w=2 l=0.6
X63 a_6380_5710.t4 V_OUT.t9 a_6150_5090.t11 VDDA.t58 sky130_fd_pr__pfet_01v8 ad=0.25 pd=1.5 as=0.25 ps=1.5 w=1 l=0.15
X64 GNDA.t90 a_6400_6270.t5 a_6400_6270.t6 GNDA.t89 sky130_fd_pr__nfet_01v8 ad=0.3125 pd=1.75 as=0.3125 ps=1.75 w=1.25 l=0.5
X65 GNDA.t156 V_OUT.t7 sky130_fd_pr__cap_mim_m3_1 l=60 w=13.8
X66 pfd_8_0.E.t0 pfd_8_0.E_b.t4 a_870_1400.t0 VDDA.t25 sky130_fd_pr__pfet_01v8 ad=0.8 pd=4.8 as=0.4 ps=2.4 w=2 l=0.15
X67 a_6500_6300.t2 V_OUT.t10 opamp_cell_4_0.n_left.t1 GNDA.t64 sky130_fd_pr__nfet_01v8 ad=0.125 pd=1 as=0.125 ps=1 w=0.5 l=0.15
X68 pfd_8_0.UP_b.t1 pfd_8_0.UP.t4 VDDA.t38 VDDA.t37 sky130_fd_pr__pfet_01v8 ad=1 pd=5 as=1 ps=5 w=2 l=0.15
X69 GNDA.t88 a_6400_6270.t7 a_6400_6270.t8 GNDA.t87 sky130_fd_pr__nfet_01v8 ad=0.3125 pd=1.75 as=0.3125 ps=1.75 w=1.25 l=0.5
X70 VDDA.t106 VDDA.t104 VDDA.t105 VDDA.t98 sky130_fd_pr__pfet_01v8 ad=1.25 pd=6 as=0 ps=0 w=2.5 l=0.5
X71 VDDA.t43 a_1870_190.t2 pfd_8_0.Reset.t0 VDDA.t42 sky130_fd_pr__pfet_01v8 ad=0.8 pd=4.8 as=0.8 ps=4.8 w=2 l=0.15
X72 VDDA.t11 pfd_8_0.opamp_out.t12 opamp_cell_4_0.VIN+.t4 VDDA.t10 sky130_fd_pr__pfet_01v8 ad=0.5 pd=2.5 as=0.5 ps=2.5 w=2 l=0.6
X73 VDDA.t77 opamp_cell_4_0.n_left.t4 opamp_cell_4_0.n_left.t5 VDDA.t76 sky130_fd_pr__pfet_01v8 ad=0.25 pd=1.5 as=0.25 ps=1.5 w=1 l=0.15
X74 VDDA.t53 pfd_8_0.UP_input.t4 V_OUT.t3 VDDA.t52 sky130_fd_pr__pfet_01v8 ad=0.5 pd=2.5 as=0.5 ps=2.5 w=2 l=0.6
X75 GNDA.t86 a_6400_6270.t11 a_6500_6300.t5 GNDA.t85 sky130_fd_pr__nfet_01v8 ad=0.3125 pd=1.75 as=0.3125 ps=1.75 w=1.25 l=0.5
X76 VDDA.t63 opamp_cell_4_0.p_bias.t11 a_6150_5090.t3 VDDA.t62 sky130_fd_pr__pfet_01v8 ad=0.625 pd=3 as=0.625 ps=3 w=2.5 l=0.5
X77 V_OUT.t6 pfd_8_0.DOWN_input.t3 GNDA.t73 GNDA.t72 sky130_fd_pr__nfet_01v8 ad=0.5 pd=2.5 as=0.5 ps=2.5 w=2 l=0.6
X78 GNDA.t124 GNDA.t121 GNDA.t123 GNDA.t122 sky130_fd_pr__nfet_01v8 ad=0.25 pd=2 as=0 ps=0 w=0.5 l=0.15
X79 GNDA.t62 a_1870_190.t3 pfd_8_0.Reset.t1 GNDA.t61 sky130_fd_pr__nfet_01v8 ad=0.4 pd=2.8 as=0.4 ps=2.8 w=1 l=0.15
X80 pfd_8_0.opamp_out.t9 a_6670_5090.t6 GNDA.t141 GNDA.t140 sky130_fd_pr__nfet_01v8 ad=0.125 pd=1 as=0.125 ps=1 w=0.5 l=0.15
X81 opamp_cell_4_0.n_right.t4 a_9540_3974.t1 GNDA.t139 sky130_fd_pr__res_xhigh_po_0p35 l=1.14
X82 GNDA.t120 GNDA.t118 GNDA.t120 GNDA.t119 sky130_fd_pr__nfet_01v8 ad=0.5 pd=2.5 as=0 ps=0 w=2 l=0.6
X83 a_6150_5090.t8 a_6150_5090.t6 a_6150_5090.t7 VDDA.t41 sky130_fd_pr__pfet_01v8 ad=0.5 pd=3 as=0 ps=0 w=1 l=0.15
X84 a_6500_6300.t4 a_6400_6270.t12 GNDA.t84 GNDA.t83 sky130_fd_pr__nfet_01v8 ad=0.3125 pd=1.75 as=0.3125 ps=1.75 w=1.25 l=0.5
X85 opamp_cell_4_0.VIN+.t3 pfd_8_0.opamp_out.t13 VDDA.t57 VDDA.t56 sky130_fd_pr__pfet_01v8 ad=0.5 pd=2.5 as=0.5 ps=2.5 w=2 l=0.6
X86 pfd_8_0.before_Reset.t0 pfd_8_0.QA.t5 a_1910_2020.t1 GNDA.t0 sky130_fd_pr__nfet_01v8 ad=0.4 pd=2.8 as=0.2 ps=1.4 w=1 l=0.15
X87 pfd_8_0.opamp_out.t6 opamp_cell_4_0.n_right.t7 VDDA.t85 VDDA.t84 sky130_fd_pr__pfet_01v8 ad=0.25 pd=1.5 as=0.25 ps=1.5 w=1 l=0.15
X88 V_OUT.t0 loop_filter_2_0.R1_C1.t0 GNDA.t25 sky130_fd_pr__res_xhigh_po_0p35 l=7.52
X89 GNDA.t117 GNDA.t115 GNDA.t117 GNDA.t116 sky130_fd_pr__nfet_01v8 ad=0.5 pd=2.5 as=0 ps=0 w=2 l=0.6
X90 pfd_8_0.UP_PFD_b.t0 pfd_8_0.QA.t6 GNDA.t10 GNDA.t9 sky130_fd_pr__nfet_01v8 ad=0.5 pd=3 as=0.5 ps=3 w=1 l=0.15
X91 opamp_cell_4_0.p_bias.t8 a_6400_6270.t0 GNDA.t56 sky130_fd_pr__res_xhigh_po_5p73 l=1
X92 a_6400_6270.t2 a_6400_6270.t1 GNDA.t82 GNDA.t81 sky130_fd_pr__nfet_01v8 ad=0.3125 pd=1.75 as=0.3125 ps=1.75 w=1.25 l=0.5
X93 opamp_cell_4_0.n_left.t0 V_OUT.t11 a_6500_6300.t1 GNDA.t63 sky130_fd_pr__nfet_01v8 ad=0.125 pd=1 as=0.125 ps=1 w=0.5 l=0.15
X94 GNDA.t114 GNDA.t112 GNDA.t114 GNDA.t113 sky130_fd_pr__nfet_01v8 ad=0.125 pd=1 as=0 ps=0 w=0.5 l=0.15
X95 GNDA.t153 pfd_8_0.E.t4 pfd_8_0.QA.t2 GNDA.t152 sky130_fd_pr__nfet_01v8 ad=0.4 pd=2.8 as=0.2 ps=1.4 w=1 l=0.15
X96 pfd_8_0.F.t1 pfd_8_0.F_b.t3 a_870_640.t0 VDDA.t25 sky130_fd_pr__pfet_01v8 ad=0.8 pd=4.8 as=0.4 ps=2.4 w=2 l=0.15
X97 VDDA.t30 pfd_8_0.Reset.t3 a_1390_1400.t0 VDDA.t28 sky130_fd_pr__pfet_01v8 ad=0.8 pd=4.8 as=0.4 ps=2.4 w=2 l=0.15
X98 GNDA.t111 GNDA.t109 GNDA.t111 GNDA.t110 sky130_fd_pr__nfet_01v8 ad=0.5 pd=2.5 as=0 ps=0 w=2 l=0.6
X99 GNDA.t108 GNDA.t105 GNDA.t107 GNDA.t106 sky130_fd_pr__nfet_01v8 ad=1 pd=5 as=0 ps=0 w=2 l=0.6
X100 pfd_8_0.UP_input.t5 pfd_8_0.UP_b.t2 sky130_fd_pr__cap_mim_m3_1 l=6.3 w=7
X101 a_2530_190.t1 a_2350_1400.t3 VDDA.t8 VDDA.t7 sky130_fd_pr__pfet_01v8 ad=0.8 pd=4.8 as=0.8 ps=4.8 w=2 l=0.15
X102 VDDA.t103 VDDA.t101 VDDA.t103 VDDA.t102 sky130_fd_pr__pfet_01v8 ad=0.25 pd=1.5 as=0 ps=0 w=1 l=0.15
X103 a_9540_6900.t1 a_6670_5090.t4 GNDA.t78 sky130_fd_pr__res_xhigh_po_0p35 l=0.86
X104 opamp_cell_4_0.n_left.t3 opamp_cell_4_0.n_left.t2 VDDA.t75 VDDA.t74 sky130_fd_pr__pfet_01v8 ad=0.25 pd=1.5 as=0.25 ps=1.5 w=1 l=0.15
X105 GNDA.t104 GNDA.t101 GNDA.t103 GNDA.t102 sky130_fd_pr__nfet_01v8 ad=1 pd=5 as=0 ps=0 w=2 l=0.6
X106 GNDA.t24 pfd_8_0.F_b.t4 pfd_8_0.F.t0 GNDA.t23 sky130_fd_pr__nfet_01v8 ad=0.4 pd=2.8 as=0.2 ps=1.4 w=1 l=0.15
X107 GNDA.t60 pfd_8_0.DOWN_input.t4 V_OUT.t5 GNDA.t59 sky130_fd_pr__nfet_01v8 ad=0.5 pd=2.5 as=0.5 ps=2.5 w=2 l=0.6
X108 pfd_8_0.QB_b.t0 pfd_8_0.QB.t5 a_n30_640.t0 VDDA.t2 sky130_fd_pr__pfet_01v8 ad=0.8 pd=4.8 as=0.4 ps=2.4 w=2 l=0.15
X109 VDDA.t47 pfd_8_0.opamp_out.t14 opamp_cell_4_0.VIN+.t2 VDDA.t46 sky130_fd_pr__pfet_01v8 ad=0.5 pd=2.5 as=0.5 ps=2.5 w=2 l=0.6
X110 VDDA.t100 VDDA.t97 VDDA.t99 VDDA.t98 sky130_fd_pr__pfet_01v8 ad=1 pd=5 as=0 ps=0 w=2 l=0.6
X111 pfd_8_0.opamp_out.t15 a_9540_6900.t0 sky130_fd_pr__cap_mim_m3_1 l=10 w=10
X112 VDDA.t29 pfd_8_0.Reset.t4 a_1390_640.t0 VDDA.t28 sky130_fd_pr__pfet_01v8 ad=0.8 pd=4.8 as=0.4 ps=2.4 w=2 l=0.15
X113 GNDA.t20 I_IN.t6 opamp_cell_4_0.VIN+.t1 GNDA.t19 sky130_fd_pr__nfet_01v8 ad=0.5 pd=2.5 as=0.5 ps=2.5 w=2 l=0.6
X114 pfd_8_0.UP_input.t1 pfd_8_0.UP.t5 VDDA.t36 VDDA.t35 sky130_fd_pr__pfet_01v8 ad=1 pd=5 as=1 ps=5 w=2 l=0.15
X115 GNDA.t32 a_6380_5710.t6 a_6670_5090.t2 GNDA.t31 sky130_fd_pr__nfet_01v8 ad=0.125 pd=1 as=0.125 ps=1 w=0.5 l=0.15
X116 GNDA.t4 pfd_8_0.QB.t6 pfd_8_0.QB_b.t1 GNDA.t3 sky130_fd_pr__nfet_01v8 ad=0.4 pd=2.8 as=0.2 ps=1.4 w=1 l=0.15
X117 GNDA.t2 I_IN.t3 I_IN.t4 GNDA.t1 sky130_fd_pr__nfet_01v8 ad=0.5 pd=2.5 as=0.5 ps=2.5 w=2 l=0.6
X118 GNDA.t40 pfd_8_0.Reset.t5 pfd_8_0.F_b.t0 GNDA.t39 sky130_fd_pr__nfet_01v8 ad=0.4 pd=2.8 as=0.2 ps=1.4 w=1 l=0.15
X119 GNDA.t29 a_6670_5090.t7 pfd_8_0.opamp_out.t1 GNDA.t28 sky130_fd_pr__nfet_01v8 ad=0.125 pd=1 as=0.125 ps=1 w=0.5 l=0.15
X120 a_6150_5090.t0 opamp_cell_4_0.VIN+.t7 a_6670_5090.t0 VDDA.t9 sky130_fd_pr__pfet_01v8 ad=0.25 pd=1.5 as=0.25 ps=1.5 w=1 l=0.15
X121 VDDA.t96 VDDA.t93 VDDA.t95 VDDA.t94 sky130_fd_pr__pfet_01v8 ad=1 pd=5 as=0 ps=0 w=2 l=0.6
X122 pfd_8_0.E.t1 pfd_8_0.QA_b.t6 GNDA.t145 GNDA.t144 sky130_fd_pr__nfet_01v8 ad=0.2 pd=1.4 as=0.4 ps=2.8 w=1 l=0.15
X123 VDDA.t83 opamp_cell_4_0.n_right.t8 pfd_8_0.opamp_out.t5 VDDA.t82 sky130_fd_pr__pfet_01v8 ad=0.25 pd=1.5 as=0.25 ps=1.5 w=1 l=0.15
X124 VDDA.t92 VDDA.t90 VDDA.t92 VDDA.t91 sky130_fd_pr__pfet_01v8 ad=0.625 pd=3 as=0 ps=0 w=2.5 l=0.5
X125 VDDA.t24 pfd_8_0.QA.t7 pfd_8_0.before_Reset.t2 VDDA.t23 sky130_fd_pr__pfet_01v8 ad=0.8 pd=4.8 as=0.4 ps=2.4 w=2 l=0.15
X126 opamp_cell_4_0.VIN+.t0 I_IN.t7 GNDA.t12 GNDA.t11 sky130_fd_pr__nfet_01v8 ad=0.5 pd=2.5 as=0.5 ps=2.5 w=2 l=0.6
X127 a_n30_640.t1 F_VCO.t0 VDDA.t26 VDDA.t19 sky130_fd_pr__pfet_01v8 ad=0.4 pd=2.4 as=0.8 ps=4.8 w=2 l=0.15
X128 pfd_8_0.UP_PFD_b.t1 pfd_8_0.QA.t8 VDDA.t124 VDDA.t0 sky130_fd_pr__pfet_01v8 ad=1 pd=5 as=1 ps=5 w=2 l=0.15
X129 VDDA.t32 pfd_8_0.E.t5 a_490_1400.t0 VDDA.t31 sky130_fd_pr__pfet_01v8 ad=0.8 pd=4.8 as=0.4 ps=2.4 w=2 l=0.15
X130 I_IN.t2 I_IN.t1 GNDA.t27 GNDA.t26 sky130_fd_pr__nfet_01v8 ad=0.5 pd=2.5 as=0.5 ps=2.5 w=2 l=0.6
X131 VDDA.t14 a_2200_190.t2 a_1870_190.t1 VDDA.t13 sky130_fd_pr__pfet_01v8 ad=0.8 pd=4.8 as=0.8 ps=4.8 w=2 l=0.15
X132 V_OUT.t2 pfd_8_0.UP_input.t6 VDDA.t51 VDDA.t50 sky130_fd_pr__pfet_01v8 ad=0.5 pd=2.5 as=0.5 ps=2.5 w=2 l=0.6
X133 pfd_8_0.QA_b.t0 F_REF.t1 GNDA.t6 GNDA.t5 sky130_fd_pr__nfet_01v8 ad=0.2 pd=1.4 as=0.4 ps=2.8 w=1 l=0.15
X134 a_6670_5090.t1 a_6380_5710.t7 GNDA.t38 GNDA.t37 sky130_fd_pr__nfet_01v8 ad=0.125 pd=1 as=0.125 ps=1 w=0.5 l=0.15
X135 pfd_8_0.QB_b.t2 F_VCO.t1 GNDA.t77 GNDA.t76 sky130_fd_pr__nfet_01v8 ad=0.2 pd=1.4 as=0.4 ps=2.8 w=1 l=0.15
X136 a_490_640.t0 pfd_8_0.QB_b.t5 pfd_8_0.QB.t1 VDDA.t125 sky130_fd_pr__pfet_01v8 ad=0.4 pd=2.4 as=0.8 ps=4.8 w=2 l=0.15
X137 GNDA.t157 loop_filter_2_0.R1_C1.t1 sky130_fd_pr__cap_mim_m3_1 l=60 w=69.8
X138 GNDA.t47 a_2200_190.t3 a_1870_190.t0 GNDA.t46 sky130_fd_pr__nfet_01v8 ad=0.4 pd=2.8 as=0.4 ps=2.8 w=1 l=0.15
X139 VDDA.t65 opamp_cell_4_0.p_bias.t2 opamp_cell_4_0.p_bias.t3 VDDA.t64 sky130_fd_pr__pfet_01v8 ad=0.625 pd=3 as=0.625 ps=3 w=2.5 l=0.5
X140 pfd_8_0.DOWN_input.t5 pfd_8_0.DOWN.t0 sky130_fd_pr__cap_mim_m3_1 l=2.6 w=3.8
X141 pfd_8_0.QB.t2 pfd_8_0.QB_b.t6 GNDA.t149 GNDA.t148 sky130_fd_pr__nfet_01v8 ad=0.2 pd=1.4 as=0.4 ps=2.8 w=1 l=0.15
X142 pfd_8_0.DOWN_PFD_b.t0 pfd_8_0.QB.t7 VDDA.t1 VDDA.t0 sky130_fd_pr__pfet_01v8 ad=1 pd=5 as=1 ps=5 w=2 l=0.15
X143 a_6670_5090.t3 opamp_cell_4_0.VIN+.t8 a_6150_5090.t1 VDDA.t27 sky130_fd_pr__pfet_01v8 ad=0.25 pd=1.5 as=0.25 ps=1.5 w=1 l=0.15
X144 pfd_8_0.UP.t0 pfd_8_0.UP_PFD_b.t3 GNDA.t151 GNDA.t150 sky130_fd_pr__nfet_01v8 ad=0.5 pd=3 as=0.5 ps=3 w=1 l=0.15
X145 VDDA.t45 opamp_cell_4_0.p_bias.t0 opamp_cell_4_0.p_bias.t1 VDDA.t44 sky130_fd_pr__pfet_01v8 ad=0.625 pd=3 as=0.625 ps=3 w=2.5 l=0.5
X146 a_6500_6300.t3 opamp_cell_4_0.VIN+.t9 opamp_cell_4_0.n_right.t1 GNDA.t79 sky130_fd_pr__nfet_01v8 ad=0.125 pd=1 as=0.125 ps=1 w=0.5 l=0.15
X147 GNDA.t18 a_6670_5090.t8 pfd_8_0.opamp_out.t0 GNDA.t17 sky130_fd_pr__nfet_01v8 ad=0.125 pd=1 as=0.125 ps=1 w=0.5 l=0.15
X148 pfd_8_0.DOWN_PFD_b.t1 pfd_8_0.QB.t8 GNDA.t69 GNDA.t68 sky130_fd_pr__nfet_01v8 ad=0.5 pd=3 as=0.5 ps=3 w=1 l=0.15
X149 VDDA.t49 pfd_8_0.UP_input.t7 V_OUT.t1 VDDA.t48 sky130_fd_pr__pfet_01v8 ad=0.5 pd=2.5 as=0.5 ps=2.5 w=2 l=0.6
X150 pfd_8_0.E_b.t2 pfd_8_0.E.t6 GNDA.t43 GNDA.t42 sky130_fd_pr__nfet_01v8 ad=0.2 pd=1.4 as=0.4 ps=2.8 w=1 l=0.15
X151 VDDA.t69 opamp_cell_4_0.p_bias.t12 a_6150_5090.t2 VDDA.t68 sky130_fd_pr__pfet_01v8 ad=0.625 pd=3 as=0.625 ps=3 w=2.5 l=0.5
X152 GNDA.t100 GNDA.t97 GNDA.t99 GNDA.t98 sky130_fd_pr__nfet_01v8 ad=1 pd=5 as=0 ps=0 w=2 l=0.6
X153 pfd_8_0.DOWN_b.t0 GNDA.t158 pfd_8_0.DOWN_PFD_b.t2 VDDA.t73 sky130_fd_pr__pfet_01v8 ad=1 pd=5 as=1 ps=5 w=2 l=0.15
R0 a_6400_6270.n4 a_6400_6270.t12 317.317
R1 a_6400_6270.n2 a_6400_6270.t11 317.317
R2 a_6400_6270.n5 a_6400_6270.n4 257.067
R3 a_6400_6270.n3 a_6400_6270.n2 257.067
R4 a_6400_6270.n10 a_6400_6270.n9 257.067
R5 a_6400_6270.t0 a_6400_6270.n12 194.478
R6 a_6400_6270.n8 a_6400_6270.n7 152
R7 a_6400_6270.n12 a_6400_6270.n11 152
R8 a_6400_6270.n1 a_6400_6270.n0 120.981
R9 a_6400_6270.n7 a_6400_6270.n6 117.781
R10 a_6400_6270.n7 a_6400_6270.n1 108.8
R11 a_6400_6270.n8 a_6400_6270.n5 85.6894
R12 a_6400_6270.n11 a_6400_6270.n3 85.6894
R13 a_6400_6270.n11 a_6400_6270.n10 85.6894
R14 a_6400_6270.n9 a_6400_6270.n8 85.6894
R15 a_6400_6270.n4 a_6400_6270.t10 60.2505
R16 a_6400_6270.n5 a_6400_6270.t1 60.2505
R17 a_6400_6270.n2 a_6400_6270.t9 60.2505
R18 a_6400_6270.n3 a_6400_6270.t7 60.2505
R19 a_6400_6270.n10 a_6400_6270.t3 60.2505
R20 a_6400_6270.n9 a_6400_6270.t5 60.2505
R21 a_6400_6270.n6 a_6400_6270.t6 24.0005
R22 a_6400_6270.n6 a_6400_6270.t2 24.0005
R23 a_6400_6270.n0 a_6400_6270.t8 24.0005
R24 a_6400_6270.n0 a_6400_6270.t4 24.0005
R25 a_6400_6270.n12 a_6400_6270.n1 3.2005
R26 GNDA.n246 GNDA.n77 35793.3
R27 GNDA.n396 GNDA.n395 18430.6
R28 GNDA.t80 GNDA.n311 1397.16
R29 GNDA.n261 GNDA.n260 1186
R30 GNDA.n58 GNDA.n50 1186
R31 GNDA.n256 GNDA.n255 1186
R32 GNDA.n251 GNDA.n250 1186
R33 GNDA.n246 GNDA.n245 1170
R34 GNDA.t139 GNDA.t25 1026.12
R35 GNDA.n173 GNDA.n172 669.307
R36 GNDA.n175 GNDA.n94 669.307
R37 GNDA.n168 GNDA.n167 669.307
R38 GNDA.n165 GNDA.n98 669.307
R39 GNDA.n119 GNDA.n118 669.307
R40 GNDA.n123 GNDA.n122 669.307
R41 GNDA.n360 GNDA.n359 585.003
R42 GNDA.n398 GNDA.n397 585.003
R43 GNDA.n395 GNDA.n394 585.001
R44 GNDA.n362 GNDA.n361 585.001
R45 GNDA.n357 GNDA.n356 585.001
R46 GNDA.n313 GNDA.n312 585.001
R47 GNDA.n315 GNDA.n314 585.001
R48 GNDA.n206 GNDA.n205 585.001
R49 GNDA.n208 GNDA.n207 585.001
R50 GNDA.n214 GNDA.n23 585.001
R51 GNDA.n403 GNDA.n402 585.001
R52 GNDA.n401 GNDA.n19 585.001
R53 GNDA.n400 GNDA.n16 585.001
R54 GNDA.n399 GNDA.n13 585.001
R55 GNDA.n396 GNDA.n2 585.001
R56 GNDA.n319 GNDA.n318 585.001
R57 GNDA.n317 GNDA.n47 585.001
R58 GNDA.n316 GNDA.n44 585.001
R59 GNDA.n259 GNDA.n258 585.001
R60 GNDA.n311 GNDA.n310 585.001
R61 GNDA.n120 GNDA.n117 585
R62 GNDA.n121 GNDA.n114 585
R63 GNDA.n102 GNDA.n99 585
R64 GNDA.n105 GNDA.n104 585
R65 GNDA.n97 GNDA.n96 585
R66 GNDA.n177 GNDA.n176 585
R67 GNDA.n203 GNDA.n202 585
R68 GNDA.n204 GNDA.n203 585
R69 GNDA.n201 GNDA.n86 585
R70 GNDA.n199 GNDA.n198 585
R71 GNDA.n197 GNDA.n85 585
R72 GNDA.n204 GNDA.n85 585
R73 GNDA.n212 GNDA.t158 566.966
R74 GNDA.n247 GNDA.t139 491.574
R75 GNDA.t48 GNDA.n204 450.389
R76 GNDA.n170 GNDA.t109 336.329
R77 GNDA.n170 GNDA.t101 336.329
R78 GNDA.n100 GNDA.t115 336.329
R79 GNDA.n100 GNDA.t105 336.329
R80 GNDA.n259 GNDA.t30 333.075
R81 GNDA.n196 GNDA.t97 320.7
R82 GNDA.n124 GNDA.t118 320.7
R83 GNDA.n248 GNDA.t112 304.634
R84 GNDA.n262 GNDA.t131 304.634
R85 GNDA.n59 GNDA.t121 304.634
R86 GNDA.n254 GNDA.t128 304.634
R87 GNDA.t42 GNDA.t142 296.906
R88 GNDA.t146 GNDA.t35 296.906
R89 GNDA.n257 GNDA.t125 292.584
R90 GNDA.n309 GNDA.t135 292.584
R91 GNDA.t95 GNDA.n256 290.373
R92 GNDA.t113 GNDA.n251 281.832
R93 GNDA.n260 GNDA.t132 281.832
R94 GNDA.t41 GNDA.t95 264.752
R95 GNDA.t136 GNDA.n50 256.212
R96 GNDA.n119 GNDA.n77 250.349
R97 GNDA.n122 GNDA.n77 250.349
R98 GNDA.n169 GNDA.n168 250.349
R99 GNDA.n169 GNDA.n98 250.349
R100 GNDA.n174 GNDA.n173 250.349
R101 GNDA.n175 GNDA.n174 250.349
R102 GNDA.n204 GNDA.n84 250.349
R103 GNDA.n250 GNDA.t114 245
R104 GNDA.n261 GNDA.t134 245
R105 GNDA.n58 GNDA.t124 245
R106 GNDA.n255 GNDA.t130 245
R107 GNDA.t89 GNDA.t129 230.59
R108 GNDA.t28 GNDA.t113 222.05
R109 GNDA.t140 GNDA.t28 222.05
R110 GNDA.t17 GNDA.t140 222.05
R111 GNDA.t51 GNDA.t17 222.05
R112 GNDA.t132 GNDA.t51 222.05
R113 GNDA.n260 GNDA.n259 222.05
R114 GNDA.t50 GNDA.t64 222.05
R115 GNDA.t31 GNDA.t37 222.05
R116 GNDA.t57 GNDA.t122 222.05
R117 GNDA.t126 GNDA.t79 213.51
R118 GNDA.t91 GNDA.t15 213.51
R119 GNDA.t53 GNDA.t80 210.007
R120 GNDA.n316 GNDA.t13 206.387
R121 GNDA.n264 GNDA.n74 204.201
R122 GNDA.n61 GNDA.n56 204.201
R123 GNDA.n60 GNDA.n57 204.201
R124 GNDA.n253 GNDA.n252 204.201
R125 GNDA.n263 GNDA.n76 204.201
R126 GNDA.n249 GNDA.n75 204.201
R127 GNDA.n3 GNDA.t4 198.058
R128 GNDA.n444 GNDA.t149 198.058
R129 GNDA.n432 GNDA.t24 198.058
R130 GNDA.n11 GNDA.t22 198.058
R131 GNDA.n388 GNDA.t36 198.058
R132 GNDA.n26 GNDA.t147 198.058
R133 GNDA.n374 GNDA.t143 198.058
R134 GNDA.n369 GNDA.t43 198.058
R135 GNDA.n176 GNDA.n97 197
R136 GNDA.n104 GNDA.n99 197
R137 GNDA.n121 GNDA.n120 197
R138 GNDA.n203 GNDA.n86 197
R139 GNDA.n198 GNDA.n85 197
R140 GNDA.t93 GNDA.t63 196.429
R141 GNDA.n172 GNDA.n171 185
R142 GNDA.n171 GNDA.n94 185
R143 GNDA.n167 GNDA.n166 185
R144 GNDA.n166 GNDA.n165 185
R145 GNDA.n118 GNDA.n115 185
R146 GNDA.n123 GNDA.n115 185
R147 GNDA.n202 GNDA.n87 185
R148 GNDA.n197 GNDA.n87 185
R149 GNDA.n318 GNDA.t150 170.179
R150 GNDA.n317 GNDA.t9 170.179
R151 GNDA.n172 GNDA.n170 166.63
R152 GNDA.n167 GNDA.n100 166.63
R153 GNDA.n251 GNDA.n247 153.727
R154 GNDA.t63 GNDA.t87 145.186
R155 GNDA.n315 GNDA.t70 141.212
R156 GNDA.n313 GNDA.t0 141.212
R157 GNDA.t21 GNDA.t23 137.921
R158 GNDA.t148 GNDA.t3 137.921
R159 GNDA.n258 GNDA.t127 134.501
R160 GNDA.n310 GNDA.t138 134.501
R161 GNDA.t55 GNDA.t68 131.194
R162 GNDA.n7 GNDA.t75 130.713
R163 GNDA.n394 GNDA.t6 130.001
R164 GNDA.n362 GNDA.t8 130.001
R165 GNDA.n356 GNDA.t34 130.001
R166 GNDA.n312 GNDA.t71 130.001
R167 GNDA.n314 GNDA.t14 130.001
R168 GNDA.n2 GNDA.t77 130.001
R169 GNDA.n13 GNDA.t40 130.001
R170 GNDA.n16 GNDA.t62 130.001
R171 GNDA.n19 GNDA.t47 130.001
R172 GNDA.n403 GNDA.t155 130.001
R173 GNDA.n358 GNDA.t145 130.001
R174 GNDA.n28 GNDA.t153 130.001
R175 GNDA.n8 GNDA.t45 130.001
R176 GNDA.t79 GNDA.t85 128.107
R177 GNDA.t15 GNDA.t83 128.107
R178 GNDA.n44 GNDA.t10 122.501
R179 GNDA.n47 GNDA.t151 122.501
R180 GNDA.n319 GNDA.t54 122.501
R181 GNDA.n214 GNDA.t69 122.501
R182 GNDA.n208 GNDA.t66 122.501
R183 GNDA.n205 GNDA.t49 122.501
R184 GNDA.n318 GNDA.t53 112.246
R185 GNDA.t150 GNDA.n317 112.246
R186 GNDA.t9 GNDA.n316 112.246
R187 GNDA.t129 GNDA.t81 111.025
R188 GNDA.t81 GNDA.t31 111.025
R189 GNDA.n361 GNDA.n357 101.382
R190 GNDA.n269 GNDA.n72 97.8707
R191 GNDA.n276 GNDA.n69 97.8707
R192 GNDA.n283 GNDA.n66 97.8707
R193 GNDA.n290 GNDA.n63 97.8707
R194 GNDA.n298 GNDA.n54 97.8707
R195 GNDA.t13 GNDA.n315 97.7622
R196 GNDA.t70 GNDA.n313 97.7622
R197 GNDA.n357 GNDA.t33 97.7622
R198 GNDA.n361 GNDA.t7 97.7622
R199 GNDA.t144 GNDA.n360 97.7622
R200 GNDA.n360 GNDA.t152 97.7622
R201 GNDA.n395 GNDA.t5 97.7622
R202 GNDA.t65 GNDA.t67 97.554
R203 GNDA.t85 GNDA.t50 93.9446
R204 GNDA.n133 GNDA.n110 92.2612
R205 GNDA.n126 GNDA.n113 92.2612
R206 GNDA.n159 GNDA.n139 92.2612
R207 GNDA.n153 GNDA.n142 92.2612
R208 GNDA.n181 GNDA.n180 92.2612
R209 GNDA.n188 GNDA.n187 92.2612
R210 GNDA.n171 GNDA.n95 91.3721
R211 GNDA.n179 GNDA.n93 91.3721
R212 GNDA.n179 GNDA.n178 91.3721
R213 GNDA.n166 GNDA.n103 91.3721
R214 GNDA.n138 GNDA.n101 91.3721
R215 GNDA.n138 GNDA.n106 91.3721
R216 GNDA.n116 GNDA.n115 90.7567
R217 GNDA.n200 GNDA.n87 90.7567
R218 GNDA.t61 GNDA.n399 89.1442
R219 GNDA.n402 GNDA.n23 87.4623
R220 GNDA.n311 GNDA.n50 85.4042
R221 GNDA.n120 GNDA.n119 84.306
R222 GNDA.n122 GNDA.n121 84.306
R223 GNDA.n168 GNDA.n99 84.306
R224 GNDA.n104 GNDA.n98 84.306
R225 GNDA.n173 GNDA.n97 84.306
R226 GNDA.n176 GNDA.n175 84.306
R227 GNDA.n86 GNDA.n84 84.306
R228 GNDA.n198 GNDA.n84 84.306
R229 GNDA.n253 GNDA.n61 83.2005
R230 GNDA.n61 GNDA.n60 83.2005
R231 GNDA.n78 GNDA.t156 79.6829
R232 GNDA.t0 GNDA.t33 79.6582
R233 GNDA.t7 GNDA.t42 79.6582
R234 GNDA.t142 GNDA.t144 79.6582
R235 GNDA.t152 GNDA.t146 79.6582
R236 GNDA.t35 GNDA.t5 79.6582
R237 GNDA.t87 GNDA.t41 76.8638
R238 GNDA.n78 GNDA.t157 76.4829
R239 GNDA.t67 GNDA.n206 75.6886
R240 GNDA.n207 GNDA.t55 75.6886
R241 GNDA.t59 GNDA.t119 70.6574
R242 GNDA.t72 GNDA.t59 70.6574
R243 GNDA.t106 GNDA.t72 70.6574
R244 GNDA.t19 GNDA.t116 70.6574
R245 GNDA.t11 GNDA.t19 70.6574
R246 GNDA.t102 GNDA.t11 70.6574
R247 GNDA.t110 GNDA.t1 70.6574
R248 GNDA.t1 GNDA.t26 70.6574
R249 GNDA.t26 GNDA.t98 70.6574
R250 GNDA.t119 GNDA.n77 67.4458
R251 GNDA.n169 GNDA.t106 67.4458
R252 GNDA.t116 GNDA.n169 67.4458
R253 GNDA.n174 GNDA.t102 67.4458
R254 GNDA.n174 GNDA.t110 67.4458
R255 GNDA.n204 GNDA.t98 67.4458
R256 GNDA.n264 GNDA.n75 66.5605
R257 GNDA.n264 GNDA.n263 66.5605
R258 GNDA.n265 GNDA.n264 65.9634
R259 GNDA.t154 GNDA.n401 65.5968
R260 GNDA.t46 GNDA.n400 65.5968
R261 GNDA.n394 GNDA.n393 60.29
R262 GNDA.n363 GNDA.n362 60.29
R263 GNDA.n356 GNDA.n355 60.29
R264 GNDA.n312 GNDA.n38 60.29
R265 GNDA.n314 GNDA.n40 60.29
R266 GNDA.n404 GNDA.n403 60.29
R267 GNDA.n411 GNDA.n19 60.29
R268 GNDA.n417 GNDA.n16 60.29
R269 GNDA.n424 GNDA.n13 60.29
R270 GNDA.n452 GNDA.n2 60.29
R271 GNDA.n74 GNDA.t141 60.0005
R272 GNDA.n74 GNDA.t18 60.0005
R273 GNDA.n56 GNDA.t38 60.0005
R274 GNDA.n56 GNDA.t16 60.0005
R275 GNDA.n57 GNDA.t58 60.0005
R276 GNDA.n57 GNDA.t123 60.0005
R277 GNDA.n252 GNDA.t130 60.0005
R278 GNDA.n252 GNDA.t32 60.0005
R279 GNDA.n76 GNDA.t52 60.0005
R280 GNDA.n76 GNDA.t133 60.0005
R281 GNDA.t114 GNDA.n249 60.0005
R282 GNDA.n249 GNDA.t29 60.0005
R283 GNDA.n333 GNDA.n44 59.5478
R284 GNDA.n326 GNDA.n47 59.5478
R285 GNDA.n320 GNDA.n319 59.5478
R286 GNDA.t25 GNDA.n246 59.2402
R287 GNDA.n233 GNDA.n208 58.9809
R288 GNDA.n221 GNDA.n214 58.9809
R289 GNDA.n205 GNDA.n80 58.9809
R290 GNDA.n206 GNDA.t48 55.5051
R291 GNDA.n207 GNDA.t65 55.5051
R292 GNDA.t68 GNDA.n23 55.5051
R293 GNDA.n380 GNDA.n28 54.4005
R294 GNDA.n358 GNDA.n29 54.4005
R295 GNDA.n437 GNDA.n8 54.4005
R296 GNDA.n439 GNDA.n7 54.4005
R297 GNDA.t56 GNDA.t57 52.9508
R298 GNDA.n256 GNDA.t89 51.2427
R299 GNDA.n247 GNDA.t78 46.9276
R300 GNDA.n402 GNDA.t154 45.4133
R301 GNDA.n401 GNDA.t46 45.4133
R302 GNDA.n400 GNDA.t61 45.4133
R303 GNDA.n399 GNDA.t39 45.4133
R304 GNDA.t44 GNDA.n398 45.4133
R305 GNDA.n398 GNDA.t74 45.4133
R306 GNDA.t76 GNDA.n396 45.4133
R307 GNDA GNDA.n244 41.8937
R308 GNDA.n294 GNDA.n61 41.6005
R309 GNDA.n194 GNDA.n192 41.3005
R310 GNDA.t83 GNDA.t56 40.9943
R311 GNDA.n266 GNDA.n265 39.4985
R312 GNDA.t39 GNDA.t21 37.0036
R313 GNDA.t23 GNDA.t44 37.0036
R314 GNDA.t74 GNDA.t148 37.0036
R315 GNDA.t3 GNDA.t76 37.0036
R316 GNDA.n393 GNDA.n0 33.0991
R317 GNDA.n453 GNDA.n452 33.0991
R318 GNDA.n134 GNDA.n133 32.0005
R319 GNDA.n134 GNDA.n107 32.0005
R320 GNDA.n128 GNDA.n127 32.0005
R321 GNDA.n128 GNDA.n111 32.0005
R322 GNDA.n132 GNDA.n111 32.0005
R323 GNDA.n160 GNDA.n108 32.0005
R324 GNDA.n158 GNDA.n140 32.0005
R325 GNDA.n154 GNDA.n140 32.0005
R326 GNDA.n154 GNDA.n153 32.0005
R327 GNDA.n152 GNDA.n143 32.0005
R328 GNDA.n148 GNDA.n143 32.0005
R329 GNDA.n147 GNDA.n146 32.0005
R330 GNDA.n146 GNDA.n92 32.0005
R331 GNDA.n185 GNDA.n90 32.0005
R332 GNDA.n186 GNDA.n185 32.0005
R333 GNDA.n195 GNDA.n88 32.0005
R334 GNDA.n266 GNDA.n71 32.0005
R335 GNDA.n271 GNDA.n71 32.0005
R336 GNDA.n272 GNDA.n271 32.0005
R337 GNDA.n273 GNDA.n272 32.0005
R338 GNDA.n273 GNDA.n68 32.0005
R339 GNDA.n278 GNDA.n68 32.0005
R340 GNDA.n279 GNDA.n278 32.0005
R341 GNDA.n280 GNDA.n279 32.0005
R342 GNDA.n280 GNDA.n65 32.0005
R343 GNDA.n285 GNDA.n65 32.0005
R344 GNDA.n286 GNDA.n285 32.0005
R345 GNDA.n287 GNDA.n286 32.0005
R346 GNDA.n287 GNDA.n62 32.0005
R347 GNDA.n292 GNDA.n62 32.0005
R348 GNDA.n293 GNDA.n292 32.0005
R349 GNDA.n295 GNDA.n53 32.0005
R350 GNDA.n300 GNDA.n53 32.0005
R351 GNDA.n301 GNDA.n300 32.0005
R352 GNDA.n306 GNDA.n301 32.0005
R353 GNDA.n306 GNDA.n305 32.0005
R354 GNDA.n305 GNDA.n304 32.0005
R355 GNDA.n320 GNDA.n48 32.0005
R356 GNDA.n324 GNDA.n48 32.0005
R357 GNDA.n325 GNDA.n324 32.0005
R358 GNDA.n327 GNDA.n45 32.0005
R359 GNDA.n331 GNDA.n45 32.0005
R360 GNDA.n332 GNDA.n331 32.0005
R361 GNDA.n334 GNDA.n42 32.0005
R362 GNDA.n338 GNDA.n42 32.0005
R363 GNDA.n339 GNDA.n338 32.0005
R364 GNDA.n340 GNDA.n339 32.0005
R365 GNDA.n344 GNDA.n343 32.0005
R366 GNDA.n345 GNDA.n344 32.0005
R367 GNDA.n349 GNDA.n348 32.0005
R368 GNDA.n350 GNDA.n349 32.0005
R369 GNDA.n350 GNDA.n36 32.0005
R370 GNDA.n354 GNDA.n35 32.0005
R371 GNDA.n364 GNDA.n35 32.0005
R372 GNDA.n368 GNDA.n33 32.0005
R373 GNDA.n369 GNDA.n368 32.0005