* PEX produced on Thu May  8 07:48:46 AM CEST 2025 using ./iic-pex.sh with m=3 and s=1
* NGSPICE file created from low_volt_BGR_11.ext - technology: sky130A

.subckt low_volt_BGR_11 VDDA V_OUT GNDA
X0 GNDA.t14 a_4938_4530.t1 GNDA.t1 sky130_fd_pr__res_xhigh_po_0p35 l=5.6
X1 VDDA.t48 V_TOP.t9 Vin-.t6 VDDA.t0 sky130_fd_pr__pfet_01v8 ad=0.8 pd=4.4 as=0.8 ps=4.4 w=4 l=0.6
X2 VDDA.t47 V_TOP.t10 V_OUT.t6 VDDA.t15 sky130_fd_pr__pfet_01v8 ad=0.8 pd=4.4 as=0.8 ps=4.4 w=4 l=0.6
X3 V_mirror.t7 V_mirror.t6 VDDA.t14 VDDA.t13 sky130_fd_pr__pfet_01v8 ad=0.4 pd=2.4 as=0.4 ps=2.4 w=2 l=0.6
X4 GNDA.t33 a_4938_4770.t1 GNDA.t1 sky130_fd_pr__res_xhigh_po_0p35 l=5.6
X5 VDDA.t46 V_TOP.t11 Vin-.t4 VDDA.t23 sky130_fd_pr__pfet_01v8 ad=0.8 pd=4.4 as=0.8 ps=4.4 w=4 l=0.6
X6 1st_Vout.t7 V_mirror.t14 VDDA.t7 VDDA.t6 sky130_fd_pr__pfet_01v8 ad=0.4 pd=2.4 as=0.4 ps=2.4 w=2 l=0.6
X7 GNDA.t19 GNDA.t30 sky130_fd_pr__rf_pnp_05v5_W3p40L3p40_5.Emitter.t5 sky130_fd_pr__pnp_05v5_W3p40L3p40
**devattr s=462400,2720
X8 GNDA.t19 GNDA.t29 sky130_fd_pr__rf_pnp_05v5_W3p40L3p40_5.Emitter.t4 sky130_fd_pr__pnp_05v5_W3p40L3p40
**devattr s=462400,2720
X9 V_OUT.t2 VDDA.t33 VDDA.t34 VDDA.t26 sky130_fd_pr__pfet_01v8 ad=0.8 pd=4.4 as=1.6 ps=8.8 w=4 l=0.6
X10 GNDA.t5 start_up.t0 start_up.t1 GNDA.t4 sky130_fd_pr__nfet_01v8 ad=0.4 pd=2.8 as=0.4 ps=2.8 w=1 l=10
X11 Vin+.t3 V_TOP.t12 VDDA.t45 VDDA.t13 sky130_fd_pr__pfet_01v8 ad=0.8 pd=4.4 as=0.8 ps=4.4 w=4 l=0.6
X12 Vin-.t0 start_up.t3 V_TOP.t1 VDDA.t12 sky130_fd_pr__pfet_01v8 ad=0.8 pd=4.8 as=0.8 ps=4.8 w=2 l=0.15
X13 VDDA.t44 V_TOP.t13 start_up.t2 VDDA.t43 sky130_fd_pr__pfet_01v8 ad=0.8 pd=4.8 as=0.8 ps=4.8 w=2 l=0.15
X14 Vin-.t5 V_TOP.t14 VDDA.t42 VDDA.t6 sky130_fd_pr__pfet_01v8 ad=0.8 pd=4.4 as=0.8 ps=4.4 w=4 l=0.6
X15 GNDA.t28 GNDA.t26 V_mirror.t9 GNDA.t27 sky130_fd_pr__nfet_01v8 ad=0.4 pd=2.8 as=0.2 ps=1.4 w=1 l=0.6
X16 V_TOP.t8 V_TOP.t7 GNDA.t8 GNDA.t7 sky130_fd_pr__nfet_01v8 ad=1.6 pd=8.8 as=1.6 ps=8.8 w=4 l=4
X17 VDDA.t3 V_mirror.t4 V_mirror.t5 VDDA.t2 sky130_fd_pr__pfet_01v8 ad=0.4 pd=2.4 as=0.4 ps=2.4 w=2 l=0.6
X18 V_mirror.t11 Vin-.t7 V_p.t7 GNDA.t34 sky130_fd_pr__nfet_01v8 ad=0.2 pd=1.4 as=0.2 ps=1.4 w=1 l=0.6
X19 VDDA.t32 VDDA.t31 V_TOP.t5 VDDA.t29 sky130_fd_pr__pfet_01v8 ad=0.8 pd=4.8 as=0.4 ps=2.4 w=2 l=0.6
X20 1st_Vout.t1 Vin+.t6 V_p.t3 GNDA.t2 sky130_fd_pr__nfet_01v8 ad=0.2 pd=1.4 as=0.2 ps=1.4 w=1 l=0.6
X21 V_TOP.t6 1st_Vout.t8 VDDA.t22 VDDA.t21 sky130_fd_pr__pfet_01v8 ad=0.4 pd=2.4 as=0.4 ps=2.4 w=2 l=0.6
X22 Vin+.t5 a_4938_3210.t1 GNDA.t1 sky130_fd_pr__res_xhigh_po_0p35 l=5.6
X23 VDDA.t41 V_TOP.t15 Vin+.t2 VDDA.t2 sky130_fd_pr__pfet_01v8 ad=0.8 pd=4.4 as=0.8 ps=4.4 w=4 l=0.6
X24 1st_Vout.t6 V_mirror.t15 VDDA.t5 VDDA.t4 sky130_fd_pr__pfet_01v8 ad=0.4 pd=2.4 as=0.4 ps=2.4 w=2 l=0.6
X25 V_p.t6 Vin-.t8 V_mirror.t10 GNDA.t12 sky130_fd_pr__nfet_01v8 ad=0.2 pd=1.4 as=0.2 ps=1.4 w=1 l=0.6
X26 V_OUT.t0 a_4938_2970.t1 GNDA.t1 sky130_fd_pr__res_xhigh_po_0p35 l=5.6
X27 VDDA.t30 VDDA.t28 V_OUT.t1 VDDA.t29 sky130_fd_pr__pfet_01v8 ad=1.6 pd=8.8 as=0.8 ps=4.4 w=4 l=0.6
X28 VDDA.t11 1st_Vout.t9 V_TOP.t0 VDDA.t10 sky130_fd_pr__pfet_01v8 ad=0.4 pd=2.4 as=0.4 ps=2.4 w=2 l=0.6
X29 a_3410_3330.t0 a_4938_3210.t0 GNDA.t1 sky130_fd_pr__res_xhigh_po_0p35 l=5.6
X30 V_OUT.t5 V_TOP.t16 VDDA.t40 VDDA.t21 sky130_fd_pr__pfet_01v8 ad=0.8 pd=4.4 as=0.8 ps=4.4 w=4 l=0.6
X31 VDDA.t9 V_mirror.t2 V_mirror.t3 VDDA.t8 sky130_fd_pr__pfet_01v8 ad=0.4 pd=2.4 as=0.4 ps=2.4 w=2 l=0.6
X32 Vin-.t3 V_TOP.t17 VDDA.t39 VDDA.t4 sky130_fd_pr__pfet_01v8 ad=0.8 pd=4.4 as=0.8 ps=4.4 w=4 l=0.6
X33 a_3410_3450.t1 a_4938_3810.t0 GNDA.t1 sky130_fd_pr__res_xhigh_po_0p35 l=5.6
X34 a_3410_3450.t0 a_4938_3090.t0 GNDA.t1 sky130_fd_pr__res_xhigh_po_0p35 l=5.6
X35 Vin-.t1 a_4938_3090.t1 GNDA.t1 sky130_fd_pr__res_xhigh_po_0p35 l=5.6
X36 VDDA.t38 V_TOP.t18 V_OUT.t4 VDDA.t10 sky130_fd_pr__pfet_01v8 ad=0.8 pd=4.4 as=0.8 ps=4.4 w=4 l=0.6
X37 GNDA.t21 GNDA.t20 sky130_fd_pr__rf_pnp_05v5_W3p40L3p40_5.Emitter.t3 sky130_fd_pr__pnp_05v5_W3p40L3p40
**devattr s=462400,2720
X38 VDDA.t37 V_TOP.t19 Vin+.t1 VDDA.t8 sky130_fd_pr__pfet_01v8 ad=0.8 pd=4.4 as=0.8 ps=4.4 w=4 l=0.6
X39 a_3410_3330.t1 a_4938_3930.t0 GNDA.t1 sky130_fd_pr__res_xhigh_po_0p35 l=5.6
X40 a_3410_3570.t1 a_4938_2970.t0 GNDA.t1 sky130_fd_pr__res_xhigh_po_0p35 l=5.6
X41 V_mirror.t12 Vin-.t9 V_p.t5 GNDA.t3 sky130_fd_pr__nfet_01v8 ad=0.2 pd=1.4 as=0.2 ps=1.4 w=1 l=0.6
X42 a_3410_3570.t0 a_4938_3690.t0 GNDA.t1 sky130_fd_pr__res_xhigh_po_0p35 l=5.6
X43 a_3410_4410.t1 a_4938_3690.t1 GNDA.t1 sky130_fd_pr__res_xhigh_po_0p35 l=5.6
X44 sky130_fd_pr__rf_pnp_05v5_W3p40L3p40_5.Emitter.t6 Vin+.t4 GNDA.t31 sky130_fd_pr__res_xhigh_po_0p35 l=3.5
X45 V_p.t2 Vin+.t7 1st_Vout.t2 GNDA.t6 sky130_fd_pr__nfet_01v8 ad=0.2 pd=1.4 as=0.2 ps=1.4 w=1 l=0.6
X46 GNDA.t10 V_p.t8 V_p.t9 GNDA.t9 sky130_fd_pr__nfet_01v8 ad=1.6 pd=8.8 as=1.6 ps=8.8 w=4 l=4
X47 V_mirror.t1 V_mirror.t0 VDDA.t20 VDDA.t19 sky130_fd_pr__pfet_01v8 ad=0.4 pd=2.4 as=0.4 ps=2.4 w=2 l=0.6
X48 V_p.t4 Vin-.t10 V_mirror.t13 GNDA.t11 sky130_fd_pr__nfet_01v8 ad=0.2 pd=1.4 as=0.2 ps=1.4 w=1 l=0.6
X49 GNDA.t19 GNDA.t24 sky130_fd_pr__rf_pnp_05v5_W3p40L3p40_5.Emitter.t2 sky130_fd_pr__pnp_05v5_W3p40L3p40
**devattr s=462400,2720
X50 GNDA.t19 GNDA.t18 sky130_fd_pr__rf_pnp_05v5_W3p40L3p40_5.Emitter.t1 sky130_fd_pr__pnp_05v5_W3p40L3p40
**devattr s=462400,2720
X51 a_3410_4410.t0 a_4938_4530.t0 GNDA.t1 sky130_fd_pr__res_xhigh_po_0p35 l=5.6
X52 a_3410_4170.t0 a_4938_3930.t1 GNDA.t1 sky130_fd_pr__res_xhigh_po_0p35 l=5.6
X53 V_TOP.t4 1st_Vout.t10 VDDA.t18 VDDA.t17 sky130_fd_pr__pfet_01v8 ad=0.4 pd=2.4 as=0.4 ps=2.4 w=2 l=0.6
X54 V_p.t1 Vin+.t8 1st_Vout.t0 GNDA.t0 sky130_fd_pr__nfet_01v8 ad=0.2 pd=1.4 as=0.2 ps=1.4 w=1 l=0.6
X55 GNDA.t21 GNDA.t25 sky130_fd_pr__rf_pnp_05v5_W3p40L3p40_5.Emitter.t0 sky130_fd_pr__pnp_05v5_W3p40L3p40
**devattr s=462400,2720
X56 GNDA.t23 GNDA.t22 Vin-.t2 sky130_fd_pr__pnp_05v5_W3p40L3p40
**devattr s=462400,2720
X57 a_3410_4290.t0 a_4938_4650.t0 GNDA.t1 sky130_fd_pr__res_xhigh_po_0p35 l=5.6
X58 VDDA.t1 V_mirror.t16 1st_Vout.t5 VDDA.t0 sky130_fd_pr__pfet_01v8 ad=0.4 pd=2.4 as=0.4 ps=2.4 w=2 l=0.6
X59 V_mirror.t8 GNDA.t15 GNDA.t17 GNDA.t16 sky130_fd_pr__nfet_01v8 ad=0.2 pd=1.4 as=0.4 ps=2.8 w=1 l=0.6
X60 Vin+.t0 V_TOP.t20 VDDA.t36 VDDA.t19 sky130_fd_pr__pfet_01v8 ad=0.8 pd=4.4 as=0.8 ps=4.4 w=4 l=0.6
X61 a_3410_4290.t1 a_4938_3810.t1 GNDA.t1 sky130_fd_pr__res_xhigh_po_0p35 l=5.6
X62 VDDA.t16 1st_Vout.t11 V_TOP.t3 VDDA.t15 sky130_fd_pr__pfet_01v8 ad=0.4 pd=2.4 as=0.4 ps=2.4 w=2 l=0.6
X63 1st_Vout.t3 Vin+.t9 V_p.t0 GNDA.t13 sky130_fd_pr__nfet_01v8 ad=0.2 pd=1.4 as=0.2 ps=1.4 w=1 l=0.6
X64 GNDA.t32 a_4938_4650.t1 GNDA.t1 sky130_fd_pr__res_xhigh_po_0p35 l=5.6
X65 V_OUT.t3 V_TOP.t21 VDDA.t35 VDDA.t17 sky130_fd_pr__pfet_01v8 ad=0.8 pd=4.4 as=0.8 ps=4.4 w=4 l=0.6
X66 VDDA.t24 V_mirror.t17 1st_Vout.t4 VDDA.t23 sky130_fd_pr__pfet_01v8 ad=0.4 pd=2.4 as=0.4 ps=2.4 w=2 l=0.6
X67 a_3410_4170.t1 a_4938_4770.t0 GNDA.t1 sky130_fd_pr__res_xhigh_po_0p35 l=5.6
X68 V_TOP.t2 VDDA.t25 VDDA.t27 VDDA.t26 sky130_fd_pr__pfet_01v8 ad=0.4 pd=2.4 as=0.8 ps=4.8 w=2 l=0.6
R0 GNDA.n1004 GNDA.n964 50274.2
R1 GNDA.n939 GNDA.n595 2115.21
R2 GNDA.n940 GNDA.n939 2079.51
R3 GNDA.n1557 GNDA.t21 1668.97
R4 GNDA.t21 GNDA.n1556 1633.27
R5 GNDA.n1582 GNDA.n1581 1600.21
R6 GNDA.n529 GNDA.n528 1497.38
R7 GNDA.n964 GNDA.t1 1259.74
R8 GNDA.n1353 GNDA.n1352 1214.72
R9 GNDA.n1352 GNDA.n1351 1214.72
R10 GNDA.n1351 GNDA.n1067 1214.72
R11 GNDA.n1269 GNDA.n1067 1214.72
R12 GNDA.n1269 GNDA.n24 1214.72
R13 GNDA.n1283 GNDA.n25 1214.72
R14 GNDA.n1283 GNDA.n1246 1214.72
R15 GNDA.n1289 GNDA.n1246 1214.72
R16 GNDA.n1290 GNDA.n1289 1214.72
R17 GNDA.n1290 GNDA.n26 1214.72
R18 GNDA.t16 GNDA.n964 1001.38
R19 GNDA.t19 GNDA.n22 949.682
R20 GNDA.n1607 GNDA.t19 949.682
R21 GNDA.t19 GNDA.n25 823.313
R22 GNDA.n962 GNDA.n581 803.245
R23 GNDA.n957 GNDA.n581 803.245
R24 GNDA.n957 GNDA.n956 803.245
R25 GNDA.n956 GNDA.n955 803.245
R26 GNDA.n955 GNDA.n578 803.245
R27 GNDA.n948 GNDA.n577 803.245
R28 GNDA.n948 GNDA.n947 803.245
R29 GNDA.n947 GNDA.n946 803.245
R30 GNDA.n946 GNDA.n590 803.245
R31 GNDA.n940 GNDA.n590 803.245
R32 GNDA.n608 GNDA.n595 803.245
R33 GNDA.n730 GNDA.n608 803.245
R34 GNDA.n731 GNDA.n730 803.245
R35 GNDA.n732 GNDA.n731 803.245
R36 GNDA.n732 GNDA.n602 803.245
R37 GNDA.n745 GNDA.n603 803.245
R38 GNDA.n739 GNDA.n603 803.245
R39 GNDA.n739 GNDA.n738 803.245
R40 GNDA.n738 GNDA.n65 803.245
R41 GNDA.n1556 GNDA.n65 803.245
R42 GNDA.n1558 GNDA.n1557 803.245
R43 GNDA.n1558 GNDA.n58 803.245
R44 GNDA.n1565 GNDA.n58 803.245
R45 GNDA.n1566 GNDA.n1565 803.245
R46 GNDA.n1567 GNDA.n1566 803.245
R47 GNDA.n1573 GNDA.n54 803.245
R48 GNDA.n1574 GNDA.n1573 803.245
R49 GNDA.n1575 GNDA.n1574 803.245
R50 GNDA.n1575 GNDA.n50 803.245
R51 GNDA.n1581 GNDA.n50 803.245
R52 GNDA.n1002 GNDA.n1001 686.717
R53 GNDA.n1011 GNDA.n1010 669.307
R54 GNDA.t19 GNDA.n21 623.755
R55 GNDA.t19 GNDA.n1606 623.755
R56 GNDA.n882 GNDA.n580 593.867
R57 GNDA.n110 GNDA.n109 588.271
R58 GNDA.n1005 GNDA.n1004 585.003
R59 GNDA.n971 GNDA.n969 585
R60 GNDA.n998 GNDA.n968 585
R61 GNDA.n1003 GNDA.n968 585
R62 GNDA.n997 GNDA.n996 585
R63 GNDA.n995 GNDA.n994 585
R64 GNDA.n993 GNDA.n976 585
R65 GNDA.n989 GNDA.n988 585
R66 GNDA.n985 GNDA.n967 585
R67 GNDA.n1003 GNDA.n967 585
R68 GNDA.n1388 GNDA.n1387 585
R69 GNDA.n107 GNDA.n106 585
R70 GNDA.n1456 GNDA.n1455 585
R71 GNDA.n1458 GNDA.n105 585
R72 GNDA.n1461 GNDA.n1460 585
R73 GNDA.n102 GNDA.n101 585
R74 GNDA.n1471 GNDA.n1470 585
R75 GNDA.n1473 GNDA.n100 585
R76 GNDA.n1476 GNDA.n1475 585
R77 GNDA.n97 GNDA.n93 585
R78 GNDA.n1487 GNDA.n1486 585
R79 GNDA.n1489 GNDA.n92 585
R80 GNDA.n885 GNDA.n884 585
R81 GNDA.n880 GNDA.n879 585
R82 GNDA.n880 GNDA.n576 585
R83 GNDA.n878 GNDA.n759 585
R84 GNDA.n876 GNDA.n875 585
R85 GNDA.n873 GNDA.n872 585
R86 GNDA.n791 GNDA.n763 585
R87 GNDA.n795 GNDA.n794 585
R88 GNDA.n797 GNDA.n790 585
R89 GNDA.n800 GNDA.n799 585
R90 GNDA.n786 GNDA.n785 585
R91 GNDA.n810 GNDA.n809 585
R92 GNDA.n812 GNDA.n782 585
R93 GNDA.n815 GNDA.n814 585
R94 GNDA.n783 GNDA.n582 585
R95 GNDA.n594 GNDA.n593 585
R96 GNDA.n915 GNDA.n912 585
R97 GNDA.n917 GNDA.n916 585
R98 GNDA.n918 GNDA.n911 585
R99 GNDA.n920 GNDA.n919 585
R100 GNDA.n922 GNDA.n909 585
R101 GNDA.n924 GNDA.n923 585
R102 GNDA.n925 GNDA.n908 585
R103 GNDA.n927 GNDA.n926 585
R104 GNDA.n929 GNDA.n906 585
R105 GNDA.n931 GNDA.n930 585
R106 GNDA.n932 GNDA.n749 585
R107 GNDA.n905 GNDA.n748 585
R108 GNDA.n748 GNDA.n747 585
R109 GNDA.n904 GNDA.n903 585
R110 GNDA.n903 GNDA.n902 585
R111 GNDA.n751 GNDA.n750 585
R112 GNDA.n901 GNDA.n751 585
R113 GNDA.n899 GNDA.n898 585
R114 GNDA.n900 GNDA.n899 585
R115 GNDA.n897 GNDA.n753 585
R116 GNDA.n753 GNDA.n752 585
R117 GNDA.n896 GNDA.n895 585
R118 GNDA.n895 GNDA.n894 585
R119 GNDA.n755 GNDA.n754 585
R120 GNDA.n893 GNDA.n755 585
R121 GNDA.n891 GNDA.n890 585
R122 GNDA.n892 GNDA.n891 585
R123 GNDA.n889 GNDA.n757 585
R124 GNDA.n757 GNDA.n756 585
R125 GNDA.n888 GNDA.n887 585
R126 GNDA.n887 GNDA.n886 585
R127 GNDA.n937 GNDA.n936 585
R128 GNDA.n938 GNDA.n937 585
R129 GNDA.n1525 GNDA.n1524 585
R130 GNDA.n1522 GNDA.n80 585
R131 GNDA.n1521 GNDA.n81 585
R132 GNDA.n1519 GNDA.n1518 585
R133 GNDA.n83 GNDA.n82 585
R134 GNDA.n1510 GNDA.n1509 585
R135 GNDA.n1507 GNDA.n85 585
R136 GNDA.n1505 GNDA.n1504 585
R137 GNDA.n87 GNDA.n86 585
R138 GNDA.n1498 GNDA.n1497 585
R139 GNDA.n1495 GNDA.n89 585
R140 GNDA.n1493 GNDA.n1492 585
R141 GNDA.n934 GNDA.n933 585
R142 GNDA.n933 GNDA.n31 585
R143 GNDA.n75 GNDA.n74 585
R144 GNDA.n74 GNDA.n62 585
R145 GNDA.n1526 GNDA.n1525 585
R146 GNDA.n1514 GNDA.n80 585
R147 GNDA.n1515 GNDA.n81 585
R148 GNDA.n1518 GNDA.n1517 585
R149 GNDA.n1513 GNDA.n83 585
R150 GNDA.n1511 GNDA.n1510 585
R151 GNDA.n85 GNDA.n84 585
R152 GNDA.n1504 GNDA.n1503 585
R153 GNDA.n1501 GNDA.n87 585
R154 GNDA.n1499 GNDA.n1498 585
R155 GNDA.n89 GNDA.n88 585
R156 GNDA.n1492 GNDA.n1491 585
R157 GNDA.n690 GNDA.n689 585
R158 GNDA.n693 GNDA.n692 585
R159 GNDA.n695 GNDA.n694 585
R160 GNDA.n699 GNDA.n698 585
R161 GNDA.n697 GNDA.n616 585
R162 GNDA.n706 GNDA.n705 585
R163 GNDA.n708 GNDA.n707 585
R164 GNDA.n712 GNDA.n711 585
R165 GNDA.n710 GNDA.n612 585
R166 GNDA.n719 GNDA.n718 585
R167 GNDA.n721 GNDA.n720 585
R168 GNDA.n724 GNDA.n723 585
R169 GNDA.n1553 GNDA.n67 585
R170 GNDA.n1552 GNDA.n1551 585
R171 GNDA.n1549 GNDA.n69 585
R172 GNDA.n1547 GNDA.n1546 585
R173 GNDA.n1545 GNDA.n70 585
R174 GNDA.n1544 GNDA.n1543 585
R175 GNDA.n1541 GNDA.n71 585
R176 GNDA.n1539 GNDA.n1538 585
R177 GNDA.n1537 GNDA.n72 585
R178 GNDA.n1536 GNDA.n1535 585
R179 GNDA.n1533 GNDA.n73 585
R180 GNDA.n1531 GNDA.n1530 585
R181 GNDA.n942 GNDA.n941 585
R182 GNDA.n941 GNDA.n940 585
R183 GNDA.n943 GNDA.n591 585
R184 GNDA.n591 GNDA.n590 585
R185 GNDA.n945 GNDA.n944 585
R186 GNDA.n946 GNDA.n945 585
R187 GNDA.n592 GNDA.n589 585
R188 GNDA.n947 GNDA.n589 585
R189 GNDA.n949 GNDA.n588 585
R190 GNDA.n949 GNDA.n948 585
R191 GNDA.n951 GNDA.n950 585
R192 GNDA.n950 GNDA.n577 585
R193 GNDA.n952 GNDA.n586 585
R194 GNDA.n586 GNDA.n578 585
R195 GNDA.n954 GNDA.n953 585
R196 GNDA.n955 GNDA.n954 585
R197 GNDA.n587 GNDA.n584 585
R198 GNDA.n956 GNDA.n584 585
R199 GNDA.n958 GNDA.n585 585
R200 GNDA.n958 GNDA.n957 585
R201 GNDA.n959 GNDA.n581 585
R202 GNDA.n962 GNDA.n961 585
R203 GNDA.n1555 GNDA.n1554 585
R204 GNDA.n1556 GNDA.n1555 585
R205 GNDA.n68 GNDA.n66 585
R206 GNDA.n66 GNDA.n65 585
R207 GNDA.n737 GNDA.n736 585
R208 GNDA.n738 GNDA.n737 585
R209 GNDA.n741 GNDA.n740 585
R210 GNDA.n740 GNDA.n739 585
R211 GNDA.n742 GNDA.n605 585
R212 GNDA.n605 GNDA.n603 585
R213 GNDA.n744 GNDA.n743 585
R214 GNDA.n745 GNDA.n744 585
R215 GNDA.n735 GNDA.n604 585
R216 GNDA.n604 GNDA.n602 585
R217 GNDA.n734 GNDA.n733 585
R218 GNDA.n733 GNDA.n732 585
R219 GNDA.n607 GNDA.n606 585
R220 GNDA.n731 GNDA.n607 585
R221 GNDA.n729 GNDA.n728 585
R222 GNDA.n730 GNDA.n729 585
R223 GNDA.n609 GNDA.n608 585
R224 GNDA.n725 GNDA.n595 585
R225 GNDA.n1580 GNDA.n1579 585
R226 GNDA.n1581 GNDA.n1580 585
R227 GNDA.n1578 GNDA.n51 585
R228 GNDA.n51 GNDA.n50 585
R229 GNDA.n1577 GNDA.n1576 585
R230 GNDA.n1576 GNDA.n1575 585
R231 GNDA.n53 GNDA.n52 585
R232 GNDA.n1574 GNDA.n53 585
R233 GNDA.n1572 GNDA.n1571 585
R234 GNDA.n1573 GNDA.n1572 585
R235 GNDA.n1570 GNDA.n55 585
R236 GNDA.n55 GNDA.n54 585
R237 GNDA.n1569 GNDA.n1568 585
R238 GNDA.n1568 GNDA.n1567 585
R239 GNDA.n57 GNDA.n56 585
R240 GNDA.n1566 GNDA.n57 585
R241 GNDA.n1564 GNDA.n1563 585
R242 GNDA.n1565 GNDA.n1564 585
R243 GNDA.n1562 GNDA.n59 585
R244 GNDA.n59 GNDA.n58 585
R245 GNDA.n49 GNDA.n48 585
R246 GNDA.n1582 GNDA.n49 585
R247 GNDA.n1585 GNDA.n1584 585
R248 GNDA.n1584 GNDA.n1583 585
R249 GNDA.n1586 GNDA.n47 585
R250 GNDA.n47 GNDA.n46 585
R251 GNDA.n1588 GNDA.n1587 585
R252 GNDA.n1589 GNDA.n1588 585
R253 GNDA.n45 GNDA.n44 585
R254 GNDA.n1590 GNDA.n45 585
R255 GNDA.n1593 GNDA.n1592 585
R256 GNDA.n1592 GNDA.n1591 585
R257 GNDA.n1594 GNDA.n43 585
R258 GNDA.n43 GNDA.n42 585
R259 GNDA.n1596 GNDA.n1595 585
R260 GNDA.n1597 GNDA.n1596 585
R261 GNDA.n40 GNDA.n39 585
R262 GNDA.n1598 GNDA.n40 585
R263 GNDA.n1601 GNDA.n1600 585
R264 GNDA.n1600 GNDA.n1599 585
R265 GNDA.n1602 GNDA.n37 585
R266 GNDA.n41 GNDA.n37 585
R267 GNDA.n1604 GNDA.n1603 585
R268 GNDA.n1604 GNDA.n36 585
R269 GNDA.n551 GNDA.n355 585
R270 GNDA.n355 GNDA.n22 585
R271 GNDA.n550 GNDA.n549 585
R272 GNDA.n549 GNDA.n548 585
R273 GNDA.n360 GNDA.n359 585
R274 GNDA.n547 GNDA.n360 585
R275 GNDA.n545 GNDA.n544 585
R276 GNDA.n546 GNDA.n545 585
R277 GNDA.n543 GNDA.n362 585
R278 GNDA.n362 GNDA.n361 585
R279 GNDA.n542 GNDA.n541 585
R280 GNDA.n541 GNDA.n18 585
R281 GNDA.n540 GNDA.n363 585
R282 GNDA.n540 GNDA.n19 585
R283 GNDA.n539 GNDA.n365 585
R284 GNDA.n539 GNDA.n538 585
R285 GNDA.n533 GNDA.n364 585
R286 GNDA.n537 GNDA.n364 585
R287 GNDA.n535 GNDA.n534 585
R288 GNDA.n536 GNDA.n535 585
R289 GNDA.n532 GNDA.n367 585
R290 GNDA.n367 GNDA.n366 585
R291 GNDA.n531 GNDA.n530 585
R292 GNDA.n530 GNDA.n529 585
R293 GNDA.n503 GNDA.n381 585
R294 GNDA.n501 GNDA.n500 585
R295 GNDA.n388 GNDA.n386 585
R296 GNDA.n469 GNDA.n467 585
R297 GNDA.n476 GNDA.n475 585
R298 GNDA.n478 GNDA.n465 585
R299 GNDA.n481 GNDA.n480 585
R300 GNDA.n463 GNDA.n462 585
R301 GNDA.n488 GNDA.n487 585
R302 GNDA.n490 GNDA.n410 585
R303 GNDA.n493 GNDA.n492 585
R304 GNDA.n333 GNDA.n330 585
R305 GNDA.n385 GNDA.n384 585
R306 GNDA.n383 GNDA.n382 585
R307 GNDA.n508 GNDA.n379 585
R308 GNDA.n379 GNDA.n378 585
R309 GNDA.n510 GNDA.n509 585
R310 GNDA.n511 GNDA.n510 585
R311 GNDA.n377 GNDA.n376 585
R312 GNDA.n512 GNDA.n377 585
R313 GNDA.n515 GNDA.n514 585
R314 GNDA.n514 GNDA.n513 585
R315 GNDA.n516 GNDA.n375 585
R316 GNDA.n375 GNDA.n374 585
R317 GNDA.n518 GNDA.n517 585
R318 GNDA.n519 GNDA.n518 585
R319 GNDA.n373 GNDA.n372 585
R320 GNDA.n520 GNDA.n373 585
R321 GNDA.n523 GNDA.n522 585
R322 GNDA.n522 GNDA.n521 585
R323 GNDA.n524 GNDA.n371 585
R324 GNDA.n371 GNDA.n370 585
R325 GNDA.n526 GNDA.n525 585
R326 GNDA.n527 GNDA.n526 585
R327 GNDA.n506 GNDA.n505 585
R328 GNDA.n505 GNDA.n15 585
R329 GNDA.n369 GNDA.n368 585
R330 GNDA.n528 GNDA.n369 585
R331 GNDA.n280 GNDA.n279 585
R332 GNDA.n151 GNDA.n29 585
R333 GNDA.n276 GNDA.n275 585
R334 GNDA.n275 GNDA.n31 585
R335 GNDA.n273 GNDA.n152 585
R336 GNDA.n271 GNDA.n270 585
R337 GNDA.n155 GNDA.n153 585
R338 GNDA.n236 GNDA.n234 585
R339 GNDA.n243 GNDA.n242 585
R340 GNDA.n245 GNDA.n232 585
R341 GNDA.n248 GNDA.n247 585
R342 GNDA.n230 GNDA.n229 585
R343 GNDA.n255 GNDA.n254 585
R344 GNDA.n257 GNDA.n177 585
R345 GNDA.n263 GNDA.n262 585
R346 GNDA.n260 GNDA.n259 585
R347 GNDA.n301 GNDA.n300 585
R348 GNDA.n300 GNDA.n299 585
R349 GNDA.n143 GNDA.n142 585
R350 GNDA.n298 GNDA.n143 585
R351 GNDA.n296 GNDA.n295 585
R352 GNDA.n297 GNDA.n296 585
R353 GNDA.n294 GNDA.n145 585
R354 GNDA.n145 GNDA.n144 585
R355 GNDA.n293 GNDA.n292 585
R356 GNDA.n292 GNDA.n291 585
R357 GNDA.n286 GNDA.n146 585
R358 GNDA.n290 GNDA.n146 585
R359 GNDA.n288 GNDA.n287 585
R360 GNDA.n289 GNDA.n288 585
R361 GNDA.n285 GNDA.n148 585
R362 GNDA.n148 GNDA.n147 585
R363 GNDA.n284 GNDA.n283 585
R364 GNDA.n283 GNDA.n282 585
R365 GNDA.n150 GNDA.n149 585
R366 GNDA.n281 GNDA.n150 585
R367 GNDA.n302 GNDA.n141 585
R368 GNDA.n141 GNDA.n16 585
R369 GNDA.n326 GNDA.n132 585
R370 GNDA.n325 GNDA.n324 585
R371 GNDA.n322 GNDA.n136 585
R372 GNDA.n320 GNDA.n319 585
R373 GNDA.n318 GNDA.n137 585
R374 GNDA.n317 GNDA.n316 585
R375 GNDA.n314 GNDA.n138 585
R376 GNDA.n312 GNDA.n311 585
R377 GNDA.n310 GNDA.n139 585
R378 GNDA.n309 GNDA.n308 585
R379 GNDA.n306 GNDA.n140 585
R380 GNDA.n304 GNDA.n303 585
R381 GNDA.n1528 GNDA.n1527 585
R382 GNDA.n1527 GNDA.n26 585
R383 GNDA.n78 GNDA.n77 585
R384 GNDA.n1290 GNDA.n78 585
R385 GNDA.n1288 GNDA.n1287 585
R386 GNDA.n1289 GNDA.n1288 585
R387 GNDA.n1286 GNDA.n1247 585
R388 GNDA.n1247 GNDA.n1246 585
R389 GNDA.n1285 GNDA.n1284 585
R390 GNDA.n1284 GNDA.n1283 585
R391 GNDA.n1249 GNDA.n1248 585
R392 GNDA.n1249 GNDA.n25 585
R393 GNDA.n1266 GNDA.n1261 585
R394 GNDA.n1261 GNDA.n24 585
R395 GNDA.n1268 GNDA.n1267 585
R396 GNDA.n1269 GNDA.n1268 585
R397 GNDA.n1265 GNDA.n1260 585
R398 GNDA.n1260 GNDA.n1067 585
R399 GNDA.n1264 GNDA.n1066 585
R400 GNDA.n1351 GNDA.n1066 585
R401 GNDA.n1263 GNDA.n1065 585
R402 GNDA.n1352 GNDA.n1065 585
R403 GNDA.n1262 GNDA.n328 585
R404 GNDA.n1353 GNDA.n328 585
R405 GNDA.n1362 GNDA.n135 585
R406 GNDA.n133 GNDA.n130 585
R407 GNDA.n1367 GNDA.n129 585
R408 GNDA.n1368 GNDA.n127 585
R409 GNDA.n1369 GNDA.n126 585
R410 GNDA.n124 GNDA.n121 585
R411 GNDA.n1374 GNDA.n120 585
R412 GNDA.n1375 GNDA.n118 585
R413 GNDA.n1376 GNDA.n117 585
R414 GNDA.n113 GNDA.n112 585
R415 GNDA.n1382 GNDA.n1381 585
R416 GNDA.n1384 GNDA.n111 585
R417 GNDA.n110 GNDA.n31 585
R418 GNDA.n1361 GNDA.n1360 585
R419 GNDA.n1360 GNDA.n1359 585
R420 GNDA.n1363 GNDA.n1362 585
R421 GNDA.n1365 GNDA.n130 585
R422 GNDA.n1367 GNDA.n1366 585
R423 GNDA.n1368 GNDA.n123 585
R424 GNDA.n1370 GNDA.n1369 585
R425 GNDA.n1372 GNDA.n121 585
R426 GNDA.n1374 GNDA.n1373 585
R427 GNDA.n1375 GNDA.n115 585
R428 GNDA.n1377 GNDA.n1376 585
R429 GNDA.n1379 GNDA.n113 585
R430 GNDA.n1381 GNDA.n1380 585
R431 GNDA.n258 GNDA.n111 585
R432 GNDA.n1041 GNDA.n358 585
R433 GNDA.n356 GNDA.n353 585
R434 GNDA.n1046 GNDA.n352 585
R435 GNDA.n1047 GNDA.n350 585
R436 GNDA.n1048 GNDA.n349 585
R437 GNDA.n347 GNDA.n344 585
R438 GNDA.n1053 GNDA.n343 585
R439 GNDA.n1054 GNDA.n341 585
R440 GNDA.n1055 GNDA.n340 585
R441 GNDA.n338 GNDA.n334 585
R442 GNDA.n337 GNDA.n332 585
R443 GNDA.n1062 GNDA.n331 585
R444 GNDA.n1358 GNDA.n1357 585
R445 GNDA.n1359 GNDA.n1358 585
R446 GNDA.n1040 GNDA.n1039 585
R447 GNDA.n1039 GNDA.n21 585
R448 GNDA.n1042 GNDA.n1041 585
R449 GNDA.n1044 GNDA.n353 585
R450 GNDA.n1046 GNDA.n1045 585
R451 GNDA.n1047 GNDA.n346 585
R452 GNDA.n1049 GNDA.n1048 585
R453 GNDA.n1051 GNDA.n344 585
R454 GNDA.n1053 GNDA.n1052 585
R455 GNDA.n1054 GNDA.n335 585
R456 GNDA.n1056 GNDA.n1055 585
R457 GNDA.n1058 GNDA.n334 585
R458 GNDA.n1059 GNDA.n332 585
R459 GNDA.n1062 GNDA.n1061 585
R460 GNDA.n1355 GNDA.n1354 585
R461 GNDA.n1354 GNDA.n1353 585
R462 GNDA.n1069 GNDA.n1064 585
R463 GNDA.n1352 GNDA.n1064 585
R464 GNDA.n1350 GNDA.n1349 585
R465 GNDA.n1351 GNDA.n1350 585
R466 GNDA.n1071 GNDA.n1068 585
R467 GNDA.n1068 GNDA.n1067 585
R468 GNDA.n1270 GNDA.n1259 585
R469 GNDA.n1270 GNDA.n1269 585
R470 GNDA.n1272 GNDA.n1271 585
R471 GNDA.n1271 GNDA.n24 585
R472 GNDA.n1273 GNDA.n1250 585
R473 GNDA.n1250 GNDA.n25 585
R474 GNDA.n1282 GNDA.n1281 585
R475 GNDA.n1283 GNDA.n1282 585
R476 GNDA.n1254 GNDA.n1251 585
R477 GNDA.n1251 GNDA.n1246 585
R478 GNDA.n1093 GNDA.n1091 585
R479 GNDA.n1289 GNDA.n1093 585
R480 GNDA.n1292 GNDA.n1291 585
R481 GNDA.n1291 GNDA.n1290 585
R482 GNDA.n1245 GNDA.n1244 585
R483 GNDA.n1245 GNDA.n26 585
R484 GNDA.n1214 GNDA.n1095 585
R485 GNDA.n1212 GNDA.n1211 585
R486 GNDA.n1098 GNDA.n1096 585
R487 GNDA.n1179 GNDA.n1177 585
R488 GNDA.n1186 GNDA.n1185 585
R489 GNDA.n1188 GNDA.n1175 585
R490 GNDA.n1191 GNDA.n1190 585
R491 GNDA.n1173 GNDA.n1172 585
R492 GNDA.n1198 GNDA.n1197 585
R493 GNDA.n1200 GNDA.n1120 585
R494 GNDA.n1204 GNDA.n1203 585
R495 GNDA.n1201 GNDA.n60 585
R496 GNDA.n1559 GNDA.n1558 585
R497 GNDA.n1557 GNDA.n61 585
R498 GNDA.n1610 GNDA.n9 585
R499 GNDA.n1611 GNDA.n8 585
R500 GNDA.n1612 GNDA.n7 585
R501 GNDA.n32 GNDA.n3 585
R502 GNDA.n1617 GNDA.n2 585
R503 GNDA.n1228 GNDA.n1 585
R504 GNDA.n1234 GNDA.n1230 585
R505 GNDA.n1235 GNDA.n1226 585
R506 GNDA.n1236 GNDA.n1225 585
R507 GNDA.n1223 GNDA.n1220 585
R508 GNDA.n1241 GNDA.n1219 585
R509 GNDA.n1242 GNDA.n1217 585
R510 GNDA.n1215 GNDA.n76 585
R511 GNDA.n1215 GNDA.n62 585
R512 GNDA.n1605 GNDA.n10 585
R513 GNDA.n1606 GNDA.n1605 585
R514 GNDA.n1610 GNDA.n1609 585
R515 GNDA.n1611 GNDA.n6 585
R516 GNDA.n1613 GNDA.n1612 585
R517 GNDA.n1615 GNDA.n3 585
R518 GNDA.n1617 GNDA.n1616 585
R519 GNDA.n1232 GNDA.n1 585
R520 GNDA.n1234 GNDA.n1233 585
R521 GNDA.n1235 GNDA.n1222 585
R522 GNDA.n1237 GNDA.n1236 585
R523 GNDA.n1239 GNDA.n1220 585
R524 GNDA.n1241 GNDA.n1240 585
R525 GNDA.n1242 GNDA.n1094 585
R526 GNDA.n1608 GNDA.n13 585
R527 GNDA.n1608 GNDA.n1607 585
R528 GNDA.n1016 GNDA.n12 585
R529 GNDA.n14 GNDA.n12 585
R530 GNDA.n1018 GNDA.n1017 585
R531 GNDA.n1020 GNDA.n1018 585
R532 GNDA.n1023 GNDA.n1022 585
R533 GNDA.n1022 GNDA.n1021 585
R534 GNDA.n1024 GNDA.n559 585
R535 GNDA.n1019 GNDA.n559 585
R536 GNDA.n1026 GNDA.n1025 585
R537 GNDA.n1026 GNDA.n28 585
R538 GNDA.n1027 GNDA.n558 585
R539 GNDA.n1028 GNDA.n1027 585
R540 GNDA.n1031 GNDA.n1030 585
R541 GNDA.n1030 GNDA.n1029 585
R542 GNDA.n1032 GNDA.n556 585
R543 GNDA.n556 GNDA.n555 585
R544 GNDA.n1034 GNDA.n1033 585
R545 GNDA.n1035 GNDA.n1034 585
R546 GNDA.n557 GNDA.n553 585
R547 GNDA.n1036 GNDA.n553 585
R548 GNDA.n1038 GNDA.n554 585
R549 GNDA.n1038 GNDA.n1037 585
R550 GNDA.n1012 GNDA.n560 585
R551 GNDA.n1014 GNDA.n1013 585
R552 GNDA.n1013 GNDA.n27 585
R553 GNDA.n939 GNDA.n579 582.98
R554 GNDA.n939 GNDA.n746 578.723
R555 GNDA.n1353 GNDA.t19 512.884
R556 GNDA.n529 GNDA.n366 505.748
R557 GNDA.n536 GNDA.n366 505.748
R558 GNDA.n537 GNDA.n536 505.748
R559 GNDA.n538 GNDA.n537 505.748
R560 GNDA.n538 GNDA.n19 505.748
R561 GNDA.n361 GNDA.n18 505.748
R562 GNDA.n546 GNDA.n361 505.748
R563 GNDA.n547 GNDA.n546 505.748
R564 GNDA.n548 GNDA.n547 505.748
R565 GNDA.n548 GNDA.n22 505.748
R566 GNDA.n1037 GNDA.n21 505.748
R567 GNDA.n1037 GNDA.n1036 505.748
R568 GNDA.n1036 GNDA.n1035 505.748
R569 GNDA.n1035 GNDA.n555 505.748
R570 GNDA.n1029 GNDA.n555 505.748
R571 GNDA.n1029 GNDA.n1028 505.748
R572 GNDA.n1019 GNDA.n28 505.748
R573 GNDA.n1021 GNDA.n1019 505.748
R574 GNDA.n1021 GNDA.n1020 505.748
R575 GNDA.n1020 GNDA.n14 505.748
R576 GNDA.n1607 GNDA.n14 505.748
R577 GNDA.n1606 GNDA.n36 505.748
R578 GNDA.n41 GNDA.n36 505.748
R579 GNDA.n1599 GNDA.n41 505.748
R580 GNDA.n1599 GNDA.n1598 505.748
R581 GNDA.n1598 GNDA.n1597 505.748
R582 GNDA.n1597 GNDA.n42 505.748
R583 GNDA.n1591 GNDA.n1590 505.748
R584 GNDA.n1590 GNDA.n1589 505.748
R585 GNDA.n1589 GNDA.n46 505.748
R586 GNDA.n1583 GNDA.n46 505.748
R587 GNDA.n1583 GNDA.n1582 505.748
R588 GNDA.t23 GNDA.n577 419.474
R589 GNDA.t21 GNDA.n745 419.474
R590 GNDA.n54 GNDA.t21 419.474
R591 GNDA.n384 GNDA.n15 410.342
R592 GNDA.t19 GNDA.n24 391.411
R593 GNDA.n299 GNDA.n16 390.029
R594 GNDA.n528 GNDA.n527 390.029
R595 GNDA.t23 GNDA.n578 383.774
R596 GNDA.t21 GNDA.n602 383.774
R597 GNDA.n1567 GNDA.t21 383.774
R598 GNDA.n280 GNDA.n29 365.651
R599 GNDA.n281 GNDA.n280 365.651
R600 GNDA.n282 GNDA.n281 365.651
R601 GNDA.n282 GNDA.n147 365.651
R602 GNDA.n289 GNDA.n147 365.651
R603 GNDA.n291 GNDA.n290 365.651
R604 GNDA.n291 GNDA.n144 365.651
R605 GNDA.n297 GNDA.n144 365.651
R606 GNDA.n298 GNDA.n297 365.651
R607 GNDA.n299 GNDA.n298 365.651
R608 GNDA.n384 GNDA.n383 365.651
R609 GNDA.n383 GNDA.n378 365.651
R610 GNDA.n511 GNDA.n378 365.651
R611 GNDA.n512 GNDA.n511 365.651
R612 GNDA.n513 GNDA.n512 365.651
R613 GNDA.n519 GNDA.n374 365.651
R614 GNDA.n520 GNDA.n519 365.651
R615 GNDA.n521 GNDA.n520 365.651
R616 GNDA.n521 GNDA.n370 365.651
R617 GNDA.n527 GNDA.n370 365.651
R618 GNDA.t19 GNDA.n16 353.464
R619 GNDA.t19 GNDA.n15 349.401
R620 GNDA.t19 GNDA.n18 342.784
R621 GNDA.t19 GNDA.n28 342.784
R622 GNDA.n1591 GNDA.t21 342.784
R623 GNDA.n1001 GNDA.n970 335
R624 GNDA.n987 GNDA.n985 335
R625 GNDA.n746 GNDA.t21 327.661
R626 GNDA.n64 GNDA.t21 172.876
R627 GNDA.t23 GNDA.n579 323.404
R628 GNDA.t21 GNDA.n63 172.615
R629 GNDA.n1004 GNDA.t27 303.449
R630 GNDA.t27 GNDA.t3 303.449
R631 GNDA.t0 GNDA.t2 303.449
R632 GNDA.t2 GNDA.t11 303.449
R633 GNDA.t34 GNDA.t6 303.449
R634 GNDA.t6 GNDA.t13 303.449
R635 GNDA.t12 GNDA.t16 303.449
R636 GNDA.t3 GNDA.t7 273.103
R637 GNDA.t9 GNDA.t12 273.103
R638 GNDA.n1000 GNDA.n999 267.865
R639 GNDA.n991 GNDA.n990 267.865
R640 GNDA.n1154 GNDA.n1109 258.334
R641 GNDA.n1312 GNDA.n1084 258.334
R642 GNDA.n444 GNDA.n399 258.334
R643 GNDA.n656 GNDA.n634 258.334
R644 GNDA.n1418 GNDA.n1400 258.334
R645 GNDA.n835 GNDA.n775 258.334
R646 GNDA.n211 GNDA.n166 258.334
R647 GNDA.n1245 GNDA.n1094 257.466
R648 GNDA.n1201 GNDA.n61 257.466
R649 GNDA.n725 GNDA.n724 257.466
R650 GNDA.n1491 GNDA.n1489 257.466
R651 GNDA.n961 GNDA.n582 257.466
R652 GNDA.n1061 GNDA.n333 257.466
R653 GNDA.n260 GNDA.n258 257.466
R654 GNDA.n960 GNDA.n583 254.444
R655 GNDA.n1386 GNDA.n31 254.34
R656 GNDA.n1457 GNDA.n31 254.34
R657 GNDA.n1459 GNDA.n31 254.34
R658 GNDA.n1472 GNDA.n31 254.34
R659 GNDA.n1474 GNDA.n31 254.34
R660 GNDA.n1488 GNDA.n31 254.34
R661 GNDA.n883 GNDA.n758 254.34
R662 GNDA.n874 GNDA.n576 254.34
R663 GNDA.n762 GNDA.n576 254.34
R664 GNDA.n796 GNDA.n576 254.34
R665 GNDA.n798 GNDA.n576 254.34
R666 GNDA.n811 GNDA.n576 254.34
R667 GNDA.n813 GNDA.n576 254.34
R668 GNDA.n914 GNDA.n579 254.34
R669 GNDA.n913 GNDA.n579 254.34
R670 GNDA.n921 GNDA.n579 254.34
R671 GNDA.n910 GNDA.n579 254.34
R672 GNDA.n928 GNDA.n579 254.34
R673 GNDA.n907 GNDA.n579 254.34
R674 GNDA.n1523 GNDA.n35 254.34
R675 GNDA.n1520 GNDA.n35 254.34
R676 GNDA.n1508 GNDA.n35 254.34
R677 GNDA.n1506 GNDA.n35 254.34
R678 GNDA.n1496 GNDA.n35 254.34
R679 GNDA.n1494 GNDA.n35 254.34
R680 GNDA.n79 GNDA.n5 254.34
R681 GNDA.n1516 GNDA.n5 254.34
R682 GNDA.n1512 GNDA.n5 254.34
R683 GNDA.n1502 GNDA.n5 254.34
R684 GNDA.n1500 GNDA.n5 254.34
R685 GNDA.n1490 GNDA.n5 254.34
R686 GNDA.n746 GNDA.n601 254.34
R687 GNDA.n746 GNDA.n600 254.34
R688 GNDA.n746 GNDA.n599 254.34
R689 GNDA.n746 GNDA.n598 254.34
R690 GNDA.n746 GNDA.n597 254.34
R691 GNDA.n746 GNDA.n596 254.34
R692 GNDA.n1550 GNDA.n63 254.34
R693 GNDA.n1548 GNDA.n63 254.34
R694 GNDA.n1542 GNDA.n63 254.34
R695 GNDA.n1540 GNDA.n63 254.34
R696 GNDA.n1534 GNDA.n63 254.34
R697 GNDA.n1532 GNDA.n63 254.34
R698 GNDA.n727 GNDA.n726 254.34
R699 GNDA.n502 GNDA.n17 254.34
R700 GNDA.n466 GNDA.n17 254.34
R701 GNDA.n477 GNDA.n17 254.34
R702 GNDA.n479 GNDA.n17 254.34
R703 GNDA.n489 GNDA.n17 254.34
R704 GNDA.n491 GNDA.n17 254.34
R705 GNDA.n507 GNDA.n380 254.34
R706 GNDA.n278 GNDA.n277 254.34
R707 GNDA.n272 GNDA.n31 254.34
R708 GNDA.n233 GNDA.n31 254.34
R709 GNDA.n244 GNDA.n31 254.34
R710 GNDA.n246 GNDA.n31 254.34
R711 GNDA.n256 GNDA.n31 254.34
R712 GNDA.n261 GNDA.n31 254.34
R713 GNDA.n323 GNDA.n30 254.34
R714 GNDA.n321 GNDA.n30 254.34
R715 GNDA.n315 GNDA.n30 254.34
R716 GNDA.n313 GNDA.n30 254.34
R717 GNDA.n307 GNDA.n30 254.34
R718 GNDA.n305 GNDA.n30 254.34
R719 GNDA.n134 GNDA.n23 254.34
R720 GNDA.n128 GNDA.n23 254.34
R721 GNDA.n125 GNDA.n23 254.34
R722 GNDA.n119 GNDA.n23 254.34
R723 GNDA.n116 GNDA.n23 254.34
R724 GNDA.n1383 GNDA.n23 254.34
R725 GNDA.n1364 GNDA.n20 254.34
R726 GNDA.n131 GNDA.n20 254.34
R727 GNDA.n1371 GNDA.n20 254.34
R728 GNDA.n122 GNDA.n20 254.34
R729 GNDA.n1378 GNDA.n20 254.34
R730 GNDA.n114 GNDA.n20 254.34
R731 GNDA.n357 GNDA.n23 254.34
R732 GNDA.n351 GNDA.n23 254.34
R733 GNDA.n348 GNDA.n23 254.34
R734 GNDA.n342 GNDA.n23 254.34
R735 GNDA.n339 GNDA.n23 254.34
R736 GNDA.n336 GNDA.n23 254.34
R737 GNDA.n1043 GNDA.n20 254.34
R738 GNDA.n354 GNDA.n20 254.34
R739 GNDA.n1050 GNDA.n20 254.34
R740 GNDA.n345 GNDA.n20 254.34
R741 GNDA.n1057 GNDA.n20 254.34
R742 GNDA.n1060 GNDA.n20 254.34
R743 GNDA.n1213 GNDA.n64 254.34
R744 GNDA.n1176 GNDA.n64 254.34
R745 GNDA.n1187 GNDA.n64 254.34
R746 GNDA.n1189 GNDA.n64 254.34
R747 GNDA.n1199 GNDA.n64 254.34
R748 GNDA.n1202 GNDA.n64 254.34
R749 GNDA.n1561 GNDA.n1560 254.34
R750 GNDA.n35 GNDA.n34 254.34
R751 GNDA.n35 GNDA.n33 254.34
R752 GNDA.n1227 GNDA.n35 254.34
R753 GNDA.n1229 GNDA.n35 254.34
R754 GNDA.n1224 GNDA.n35 254.34
R755 GNDA.n1218 GNDA.n35 254.34