** sch_path: /foss/designs/my_design/projects/pll/full_pll/xschem_ngspice/full_pll_16.sch
**.subckt full_pll_16
VDD VDD GND 1.8
x1 VDD V_OSC V_CONT GND current_starved_VCO10
V3 F_REF GND pulse(0 1.8 0ns 1ns 1ns 24ns 50ns)
x3 F_REF_INV V_OUT120_INV VDD UP_PFD DOWN_PFD GND phase_frequency_detector
x4 V_CP VDD GND UP_PFD DOWN_PFD I_IN charge_pump7
I1 GND I_IN 100u
XC2 V_CP GND sky130_fd_pr__cap_mim_m3_1 W=60 L=13.8 MF=1 m=1
XC1 net1 GND sky130_fd_pr__cap_mim_m3_1 W=60 L=69.8 MF=1 m=1
XR1 net1 V_CP GND sky130_fd_pr__res_xhigh_po_0p35 L=7.52 mult=1 m=1
x9 VDD F_REF F_REF_INV GND inverter
x7 VDD V_OUT120 V_OUT120_INV GND inverter
x2 VDD V_OUT120 V_OSC GND divide_by_120_6
x5 GND V_CONT V_CP V_CONT VDD rail_to_rail_opamp6
**** begin user architecture code



.include /foss/pdks/sky130A/libs.ref/sky130_fd_sc_hd/spice/sky130_fd_sc_hd.spice

.option method=gear
.option wnflag=1

* Initial V_cont condition
.ic v(v_cont)=0

.save
* Divider Signals
+v(x2.v_out2)
+v(x2.v_out4)
+v(x2.v_out8)
+v(x2.v_out24)
+v(v_out120)
+v(v_out120_inv)

* Reference Signal, 20MHz
+v(f_ref)
+v(f_ref_inv)

* Phase Frequency Detector Signals
+v(up_pfd)
+v(down_pfd)

* Charge Pump Signals
+v(x4.up_pfd_b)
+v(x4.up_b)
+v(x4.down_b)
+v(x4.up)
+v(x4.down)
+v(x4.up_input)
+v(x4.down_input)
+v(x4.down_gate)
+v(x4.x)
+v(x4.opamp_out)
+i(x4.vmeas2)
+i(x4.vmeas3)
+v(v_cp)

* Phase Frequency Detector Signals
+v(v_cont)
+v(v_osc)

.control
    tran 5p 9u
    remzerovec
    write full_pll_16.raw
    linearize v(v_osc)
    wrdata /foss/designs/my_design/projects/pll/full_pll/xschem_ngspice/full_pll_16.txt v(v_osc)
    set appendwrite
 .endc



.lib /foss/pdks/sky130A/libs.tech/combined/sky130.lib.spice tt
**** end user architecture code
**.ends

* expanding   symbol:  /foss/designs/my_design/projects/pll/vco/xschem_ngspice/current_starved_VCO10.sym # of pins=4
** sym_path: /foss/designs/my_design/projects/pll/vco/xschem_ngspice/current_starved_VCO10.sym
** sch_path: /foss/designs/my_design/projects/pll/vco/xschem_ngspice/current_starved_VCO10.sch
.subckt current_starved_VCO10 VDDA V_OSC V_CONT GNDA
*.opin V_OSC
*.ipin VDDA
*.ipin GNDA
*.ipin V_CONT
XM21 net1 V_OSC v3 GNDA sky130_fd_pr__nfet_01v8 L=0.22 W=0.43 nf=1 ad='int((nf+1)/2) * W/nf * 0.29' as='int((nf+2)/2) * W/nf * 0.29'
+ pd='2*int((nf+1)/2) * (W/nf + 0.29)' ps='2*int((nf+2)/2) * (W/nf + 0.29)' nrd='0.29 / W' nrs='0.29 / W' sa=0 sb=0 sd=0 mult=1 m=1
XM22 net1 V_OSC v2 VDDA sky130_fd_pr__pfet_01v8 L=0.22 W=0.86 nf=2 ad='int((nf+1)/2) * W/nf * 0.29' as='int((nf+2)/2) * W/nf * 0.29'
+ pd='2*int((nf+1)/2) * (W/nf + 0.29)' ps='2*int((nf+2)/2) * (W/nf + 0.29)' nrd='0.29 / W' nrs='0.29 / W' sa=0 sb=0 sd=0 mult=1 m=1
XM23 net2 net1 net4 GNDA sky130_fd_pr__nfet_01v8 L=0.22 W=0.43 nf=1 ad='int((nf+1)/2) * W/nf * 0.29' as='int((nf+2)/2) * W/nf * 0.29'
+ pd='2*int((nf+1)/2) * (W/nf + 0.29)' ps='2*int((nf+2)/2) * (W/nf + 0.29)' nrd='0.29 / W' nrs='0.29 / W' sa=0 sb=0 sd=0 mult=1 m=1
XM24 net2 net1 net5 VDDA sky130_fd_pr__pfet_01v8 L=0.22 W=0.86 nf=2 ad='int((nf+1)/2) * W/nf * 0.29' as='int((nf+2)/2) * W/nf * 0.29'
+ pd='2*int((nf+1)/2) * (W/nf + 0.29)' ps='2*int((nf+2)/2) * (W/nf + 0.29)' nrd='0.29 / W' nrs='0.29 / W' sa=0 sb=0 sd=0 mult=1 m=1
XM25 V_OSC net2 net3 GNDA sky130_fd_pr__nfet_01v8 L=0.22 W=0.43 nf=1 ad='int((nf+1)/2) * W/nf * 0.29' as='int((nf+2)/2) * W/nf * 0.29'
+ pd='2*int((nf+1)/2) * (W/nf + 0.29)' ps='2*int((nf+2)/2) * (W/nf + 0.29)' nrd='0.29 / W' nrs='0.29 / W' sa=0 sb=0 sd=0 mult=1 m=1
XM26 V_OSC net2 net6 VDDA sky130_fd_pr__pfet_01v8 L=0.22 W=0.86 nf=2 ad='int((nf+1)/2) * W/nf * 0.29' as='int((nf+2)/2) * W/nf * 0.29'
+ pd='2*int((nf+1)/2) * (W/nf + 0.29)' ps='2*int((nf+2)/2) * (W/nf + 0.29)' nrd='0.29 / W' nrs='0.29 / W' sa=0 sb=0 sd=0 mult=1 m=1
XM27 v3 V_CONT GNDA GNDA sky130_fd_pr__nfet_01v8 L=0.15 W=1.0 nf=1 ad='int((nf+1)/2) * W/nf * 0.29' as='int((nf+2)/2) * W/nf * 0.29'
+ pd='2*int((nf+1)/2) * (W/nf + 0.29)' ps='2*int((nf+2)/2) * (W/nf + 0.29)' nrd='0.29 / W' nrs='0.29 / W' sa=0 sb=0 sd=0 mult=1 m=1
XM28 net4 V_CONT GNDA GNDA sky130_fd_pr__nfet_01v8 L=0.15 W=1.0 nf=1 ad='int((nf+1)/2) * W/nf * 0.29' as='int((nf+2)/2) * W/nf * 0.29'
+ pd='2*int((nf+1)/2) * (W/nf + 0.29)' ps='2*int((nf+2)/2) * (W/nf + 0.29)' nrd='0.29 / W' nrs='0.29 / W' sa=0 sb=0 sd=0 mult=1 m=1
XM29 net3 V_CONT GNDA GNDA sky130_fd_pr__nfet_01v8 L=0.15 W=1.0 nf=1 ad='int((nf+1)/2) * W/nf * 0.29' as='int((nf+2)/2) * W/nf * 0.29'
+ pd='2*int((nf+1)/2) * (W/nf + 0.29)' ps='2*int((nf+2)/2) * (W/nf + 0.29)' nrd='0.29 / W' nrs='0.29 / W' sa=0 sb=0 sd=0 mult=1 m=1
XM30 v2 v1 VDDA VDDA sky130_fd_pr__pfet_01v8 L=1.5 W=2 nf=1 ad='int((nf+1)/2) * W/nf * 0.29' as='int((nf+2)/2) * W/nf * 0.29' pd='2*int((nf+1)/2) * (W/nf + 0.29)'
+ ps='2*int((nf+2)/2) * (W/nf + 0.29)' nrd='0.29 / W' nrs='0.29 / W' sa=0 sb=0 sd=0 mult=1 m=1
XM31 net5 v1 VDDA VDDA sky130_fd_pr__pfet_01v8 L=1.5 W=2 nf=1 ad='int((nf+1)/2) * W/nf * 0.29' as='int((nf+2)/2) * W/nf * 0.29' pd='2*int((nf+1)/2) * (W/nf + 0.29)'
+ ps='2*int((nf+2)/2) * (W/nf + 0.29)' nrd='0.29 / W' nrs='0.29 / W' sa=0 sb=0 sd=0 mult=1 m=1
XM32 net6 v1 VDDA VDDA sky130_fd_pr__pfet_01v8 L=1.5 W=2 nf=1 ad='int((nf+1)/2) * W/nf * 0.29' as='int((nf+2)/2) * W/nf * 0.29' pd='2*int((nf+1)/2) * (W/nf + 0.29)'
+ ps='2*int((nf+2)/2) * (W/nf + 0.29)' nrd='0.29 / W' nrs='0.29 / W' sa=0 sb=0 sd=0 mult=1 m=1
XM33 v3 VDDA GNDA GNDA sky130_fd_pr__nfet_01v8 L=0.15 W=0.43 nf=1 ad='int((nf+1)/2) * W/nf * 0.29' as='int((nf+2)/2) * W/nf * 0.29'
+ pd='2*int((nf+1)/2) * (W/nf + 0.29)' ps='2*int((nf+2)/2) * (W/nf + 0.29)' nrd='0.29 / W' nrs='0.29 / W' sa=0 sb=0 sd=0 mult=1 m=1
XM34 net4 VDDA GNDA GNDA sky130_fd_pr__nfet_01v8 L=0.15 W=0.43 nf=1 ad='int((nf+1)/2) * W/nf * 0.29' as='int((nf+2)/2) * W/nf * 0.29'
+ pd='2*int((nf+1)/2) * (W/nf + 0.29)' ps='2*int((nf+2)/2) * (W/nf + 0.29)' nrd='0.29 / W' nrs='0.29 / W' sa=0 sb=0 sd=0 mult=1 m=1
XM35 net3 VDDA GNDA GNDA sky130_fd_pr__nfet_01v8 L=0.15 W=0.43 nf=1 ad='int((nf+1)/2) * W/nf * 0.29' as='int((nf+2)/2) * W/nf * 0.29'
+ pd='2*int((nf+1)/2) * (W/nf + 0.29)' ps='2*int((nf+2)/2) * (W/nf + 0.29)' nrd='0.29 / W' nrs='0.29 / W' sa=0 sb=0 sd=0 mult=1 m=1
XM36 v2 GNDA VDDA VDDA sky130_fd_pr__pfet_01v8 L=0.15 W=0.86 nf=2 ad='int((nf+1)/2) * W/nf * 0.29' as='int((nf+2)/2) * W/nf * 0.29'
+ pd='2*int((nf+1)/2) * (W/nf + 0.29)' ps='2*int((nf+2)/2) * (W/nf + 0.29)' nrd='0.29 / W' nrs='0.29 / W' sa=0 sb=0 sd=0 mult=1 m=1
XM37 net5 GNDA VDDA VDDA sky130_fd_pr__pfet_01v8 L=0.15 W=0.86 nf=2 ad='int((nf+1)/2) * W/nf * 0.29' as='int((nf+2)/2) * W/nf * 0.29'
+ pd='2*int((nf+1)/2) * (W/nf + 0.29)' ps='2*int((nf+2)/2) * (W/nf + 0.29)' nrd='0.29 / W' nrs='0.29 / W' sa=0 sb=0 sd=0 mult=1 m=1
XM38 net6 GNDA VDDA VDDA sky130_fd_pr__pfet_01v8 L=0.15 W=0.86 nf=2 ad='int((nf+1)/2) * W/nf * 0.29' as='int((nf+2)/2) * W/nf * 0.29'
+ pd='2*int((nf+1)/2) * (W/nf + 0.29)' ps='2*int((nf+2)/2) * (W/nf + 0.29)' nrd='0.29 / W' nrs='0.29 / W' sa=0 sb=0 sd=0 mult=1 m=1
XM39 v1 v1 VDDA VDDA sky130_fd_pr__pfet_01v8 L=1.5 W=2 nf=1 ad='int((nf+1)/2) * W/nf * 0.29' as='int((nf+2)/2) * W/nf * 0.29' pd='2*int((nf+1)/2) * (W/nf + 0.29)'
+ ps='2*int((nf+2)/2) * (W/nf + 0.29)' nrd='0.29 / W' nrs='0.29 / W' sa=0 sb=0 sd=0 mult=1 m=1
XM40 v1 V_CONT GNDA GNDA sky130_fd_pr__nfet_01v8 L=0.15 W=1.0 nf=1 ad='int((nf+1)/2) * W/nf * 0.29' as='int((nf+2)/2) * W/nf * 0.29'
+ pd='2*int((nf+1)/2) * (W/nf + 0.29)' ps='2*int((nf+2)/2) * (W/nf + 0.29)' nrd='0.29 / W' nrs='0.29 / W' sa=0 sb=0 sd=0 mult=1 m=1
.ends


* expanding   symbol:  /foss/designs/my_design/projects/pll/pfd/xschem_ngspice/phase_frequency_detector.sym # of pins=6
** sym_path: /foss/designs/my_design/projects/pll/pfd/xschem_ngspice/phase_frequency_detector.sym
** sch_path: /foss/designs/my_design/projects/pll/pfd/xschem_ngspice/phase_frequency_detector.sch
.subckt phase_frequency_detector F_REF F_VCO VDDA QA QB GNDA
*.ipin F_REF
*.opin QA
*.ipin F_VCO
*.opin QB
*.ipin VDDA
*.ipin GNDA
x1 F_REF QA GNDA GNDA VDDA VDDA QA_b sky130_fd_sc_hd__nor2_1
x2 QA_b E GNDA GNDA VDDA VDDA QA sky130_fd_sc_hd__nor2_1
x3 QA_b E_b GNDA GNDA VDDA VDDA E sky130_fd_sc_hd__nor2_1
x4 E Reset GNDA GNDA VDDA VDDA E_b sky130_fd_sc_hd__nor2_1
x5 F_VCO QB GNDA GNDA VDDA VDDA QB_b sky130_fd_sc_hd__nor2_1
x6 QB_b F GNDA GNDA VDDA VDDA QB sky130_fd_sc_hd__nor2_1
x7 QB_b F_b GNDA GNDA VDDA VDDA F sky130_fd_sc_hd__nor2_1
x8 F Reset GNDA GNDA VDDA VDDA F_b sky130_fd_sc_hd__nor2_1
x9 QA QB GNDA GNDA VDDA VDDA before_Reset sky130_fd_sc_hd__nand2_1
x10 before_Reset GNDA GNDA VDDA VDDA net1 sky130_fd_sc_hd__inv_1
x11 net1 GNDA GNDA VDDA VDDA net2 sky130_fd_sc_hd__inv_1
x12 net2 GNDA GNDA VDDA VDDA net3 sky130_fd_sc_hd__inv_1
x13 net3 GNDA GNDA VDDA VDDA net4 sky130_fd_sc_hd__inv_1
x14 net4 GNDA GNDA VDDA VDDA Reset sky130_fd_sc_hd__inv_1
.ends


* expanding   symbol:  /foss/designs/my_design/projects/pll/charge_pump/xschem_ngspice/charge_pump7.sym # of pins=6
** sym_path: /foss/designs/my_design/projects/pll/charge_pump/xschem_ngspice/charge_pump7.sym
** sch_path: /foss/designs/my_design/projects/pll/charge_pump/xschem_ngspice/charge_pump7.sch
.subckt charge_pump7 V_OUT VDDA GNDA UP_PFD DOWN_PFD I_IN
*.ipin VDDA
*.opin V_OUT
*.ipin GNDA
*.ipin UP_PFD
*.ipin DOWN_PFD
*.ipin I_IN
XM12 DOWN_b GNDA net1 VDDA sky130_fd_pr__pfet_01v8 L=0.15 W=2 nf=2 ad='int((nf+1)/2) * W/nf * 0.29' as='int((nf+2)/2) * W/nf * 0.29'
+ pd='2*int((nf+1)/2) * (W/nf + 0.29)' ps='2*int((nf+2)/2) * (W/nf + 0.29)' nrd='0.29 / W' nrs='0.29 / W' sa=0 sb=0 sd=0 mult=1 m=1
XM13 DOWN_b VDDA net1 GNDA sky130_fd_pr__nfet_01v8 L=0.15 W=1 nf=1 ad='int((nf+1)/2) * W/nf * 0.29' as='int((nf+2)/2) * W/nf * 0.29'
+ pd='2*int((nf+1)/2) * (W/nf + 0.29)' ps='2*int((nf+2)/2) * (W/nf + 0.29)' nrd='0.29 / W' nrs='0.29 / W' sa=0 sb=0 sd=0 mult=1 m=1
XM10 net1 DOWN_PFD VDDA VDDA sky130_fd_pr__pfet_01v8 L=0.15 W=2 nf=2 ad='int((nf+1)/2) * W/nf * 0.29' as='int((nf+2)/2) * W/nf * 0.29'
+ pd='2*int((nf+1)/2) * (W/nf + 0.29)' ps='2*int((nf+2)/2) * (W/nf + 0.29)' nrd='0.29 / W' nrs='0.29 / W' sa=0 sb=0 sd=0 mult=1 m=1
XM11 GNDA DOWN_PFD net1 GNDA sky130_fd_pr__nfet_01v8 L=0.15 W=1 nf=1 ad='int((nf+1)/2) * W/nf * 0.29' as='int((nf+2)/2) * W/nf * 0.29'
+ pd='2*int((nf+1)/2) * (W/nf + 0.29)' ps='2*int((nf+2)/2) * (W/nf + 0.29)' nrd='0.29 / W' nrs='0.29 / W' sa=0 sb=0 sd=0 mult=1 m=1
XM14 UP_PFD_b UP_PFD VDDA VDDA sky130_fd_pr__pfet_01v8 L=0.15 W=2 nf=2 ad='int((nf+1)/2) * W/nf * 0.29' as='int((nf+2)/2) * W/nf * 0.29'
+ pd='2*int((nf+1)/2) * (W/nf + 0.29)' ps='2*int((nf+2)/2) * (W/nf + 0.29)' nrd='0.29 / W' nrs='0.29 / W' sa=0 sb=0 sd=0 mult=1 m=1
XM15 GNDA UP_PFD UP_PFD_b GNDA sky130_fd_pr__nfet_01v8 L=0.15 W=1 nf=1 ad='int((nf+1)/2) * W/nf * 0.29' as='int((nf+2)/2) * W/nf * 0.29'
+ pd='2*int((nf+1)/2) * (W/nf + 0.29)' ps='2*int((nf+2)/2) * (W/nf + 0.29)' nrd='0.29 / W' nrs='0.29 / W' sa=0 sb=0 sd=0 mult=1 m=1
XM16 UP UP_PFD_b VDDA VDDA sky130_fd_pr__pfet_01v8 L=0.15 W=2 nf=2 ad='int((nf+1)/2) * W/nf * 0.29' as='int((nf+2)/2) * W/nf * 0.29'
+ pd='2*int((nf+1)/2) * (W/nf + 0.29)' ps='2*int((nf+2)/2) * (W/nf + 0.29)' nrd='0.29 / W' nrs='0.29 / W' sa=0 sb=0 sd=0 mult=1 m=1
XM17 GNDA UP_PFD_b UP GNDA sky130_fd_pr__nfet_01v8 L=0.15 W=1 nf=1 ad='int((nf+1)/2) * W/nf * 0.29' as='int((nf+2)/2) * W/nf * 0.29'
+ pd='2*int((nf+1)/2) * (W/nf + 0.29)' ps='2*int((nf+2)/2) * (W/nf + 0.29)' nrd='0.29 / W' nrs='0.29 / W' sa=0 sb=0 sd=0 mult=1 m=1
XM22 net2 net2 GNDA GNDA sky130_fd_pr__nfet_01v8 L=0.6 W=4 nf=1 ad='int((nf+1)/2) * W/nf * 0.29' as='int((nf+2)/2) * W/nf * 0.29' pd='2*int((nf+1)/2) * (W/nf + 0.29)'
+ ps='2*int((nf+2)/2) * (W/nf + 0.29)' nrd='0.29 / W' nrs='0.29 / W' sa=0 sb=0 sd=0 mult=1 m=1
XM23 net4 net2 GNDA GNDA sky130_fd_pr__nfet_01v8 L=0.6 W=4 nf=1 ad='int((nf+1)/2) * W/nf * 0.29' as='int((nf+2)/2) * W/nf * 0.29' pd='2*int((nf+1)/2) * (W/nf + 0.29)'
+ ps='2*int((nf+2)/2) * (W/nf + 0.29)' nrd='0.29 / W' nrs='0.29 / W' sa=0 sb=0 sd=0 mult=1 m=1
XM24 VDDA opamp_out x VDDA sky130_fd_pr__pfet_01v8 L=0.6 W=8 nf=8 ad='int((nf+1)/2) * W/nf * 0.29' as='int((nf+2)/2) * W/nf * 0.29'
+ pd='2*int((nf+1)/2) * (W/nf + 0.29)' ps='2*int((nf+2)/2) * (W/nf + 0.29)' nrd='0.29 / W' nrs='0.29 / W' sa=0 sb=0 sd=0 mult=1 m=1
XM25 UP_input UP_b opamp_out VDDA sky130_fd_pr__pfet_01v8 L=0.15 W=2 nf=2 ad='int((nf+1)/2) * W/nf * 0.29' as='int((nf+2)/2) * W/nf * 0.29'
+ pd='2*int((nf+1)/2) * (W/nf + 0.29)' ps='2*int((nf+2)/2) * (W/nf + 0.29)' nrd='0.29 / W' nrs='0.29 / W' sa=0 sb=0 sd=0 mult=1 m=1
XM26 UP_input UP VDDA VDDA sky130_fd_pr__pfet_01v8 L=0.15 W=2 nf=2 ad='int((nf+1)/2) * W/nf * 0.29' as='int((nf+2)/2) * W/nf * 0.29'
+ pd='2*int((nf+1)/2) * (W/nf + 0.29)' ps='2*int((nf+2)/2) * (W/nf + 0.29)' nrd='0.29 / W' nrs='0.29 / W' sa=0 sb=0 sd=0 mult=1 m=1
XM27 net3 UP_input VDDA VDDA sky130_fd_pr__pfet_01v8 L=0.6 W=8 nf=8 ad='int((nf+1)/2) * W/nf * 0.29' as='int((nf+2)/2) * W/nf * 0.29'
+ pd='2*int((nf+1)/2) * (W/nf + 0.29)' ps='2*int((nf+2)/2) * (W/nf + 0.29)' nrd='0.29 / W' nrs='0.29 / W' sa=0 sb=0 sd=0 mult=1 m=1
XM28 DOWN_input DOWN net2 GNDA sky130_fd_pr__nfet_01v8 L=0.15 W=1 nf=1 ad='int((nf+1)/2) * W/nf * 0.29' as='int((nf+2)/2) * W/nf * 0.29'
+ pd='2*int((nf+1)/2) * (W/nf + 0.29)' ps='2*int((nf+2)/2) * (W/nf + 0.29)' nrd='0.29 / W' nrs='0.29 / W' sa=0 sb=0 sd=0 mult=1 m=1
XM29 DOWN_input DOWN_b GNDA GNDA sky130_fd_pr__nfet_01v8 L=0.15 W=1 nf=1 ad='int((nf+1)/2) * W/nf * 0.29' as='int((nf+2)/2) * W/nf * 0.29'
+ pd='2*int((nf+1)/2) * (W/nf + 0.29)' ps='2*int((nf+2)/2) * (W/nf + 0.29)' nrd='0.29 / W' nrs='0.29 / W' sa=0 sb=0 sd=0 mult=1 m=1
XM30 net5 DOWN_input GNDA GNDA sky130_fd_pr__nfet_01v8 L=0.6 W=4 nf=1 ad='int((nf+1)/2) * W/nf * 0.29' as='int((nf+2)/2) * W/nf * 0.29'
+ pd='2*int((nf+1)/2) * (W/nf + 0.29)' ps='2*int((nf+2)/2) * (W/nf + 0.29)' nrd='0.29 / W' nrs='0.29 / W' sa=0 sb=0 sd=0 mult=1 m=1
x1 VDDA V_OUT x opamp_out GNDA rail_to_rail_opamp6
XM31 DOWN DOWN_b VDDA VDDA sky130_fd_pr__pfet_01v8 L=0.15 W=2 nf=2 ad='int((nf+1)/2) * W/nf * 0.29' as='int((nf+2)/2) * W/nf * 0.29'
+ pd='2*int((nf+1)/2) * (W/nf + 0.29)' ps='2*int((nf+2)/2) * (W/nf + 0.29)' nrd='0.29 / W' nrs='0.29 / W' sa=0 sb=0 sd=0 mult=1 m=1
XM32 GNDA DOWN_b DOWN GNDA sky130_fd_pr__nfet_01v8 L=0.15 W=1 nf=1 ad='int((nf+1)/2) * W/nf * 0.29' as='int((nf+2)/2) * W/nf * 0.29'
+ pd='2*int((nf+1)/2) * (W/nf + 0.29)' ps='2*int((nf+2)/2) * (W/nf + 0.29)' nrd='0.29 / W' nrs='0.29 / W' sa=0 sb=0 sd=0 mult=1 m=1
XM33 UP_b UP VDDA VDDA sky130_fd_pr__pfet_01v8 L=0.15 W=2 nf=2 ad='int((nf+1)/2) * W/nf * 0.29' as='int((nf+2)/2) * W/nf * 0.29' pd='2*int((nf+1)/2) * (W/nf + 0.29)'
+ ps='2*int((nf+2)/2) * (W/nf + 0.29)' nrd='0.29 / W' nrs='0.29 / W' sa=0 sb=0 sd=0 mult=1 m=1
XM34 GNDA UP UP_b GNDA sky130_fd_pr__nfet_01v8 L=0.15 W=1 nf=1 ad='int((nf+1)/2) * W/nf * 0.29' as='int((nf+2)/2) * W/nf * 0.29' pd='2*int((nf+1)/2) * (W/nf + 0.29)'
+ ps='2*int((nf+2)/2) * (W/nf + 0.29)' nrd='0.29 / W' nrs='0.29 / W' sa=0 sb=0 sd=0 mult=1 m=1
Vmeas I_IN net2 0
.save i(vmeas)
Vmeas1 x net4 0
.save i(vmeas1)
Vmeas2 net3 V_OUT 0
.save i(vmeas2)
Vmeas3 V_OUT net5 0
.save i(vmeas3)
XM35 UP_input UP opamp_out GNDA sky130_fd_pr__nfet_01v8 L=0.15 W=1 nf=1 ad='int((nf+1)/2) * W/nf * 0.29' as='int((nf+2)/2) * W/nf * 0.29'
+ pd='2*int((nf+1)/2) * (W/nf + 0.29)' ps='2*int((nf+2)/2) * (W/nf + 0.29)' nrd='0.29 / W' nrs='0.29 / W' sa=0 sb=0 sd=0 mult=1 m=1
XM36 DOWN_input DOWN_b net2 VDDA sky130_fd_pr__pfet_01v8 L=0.15 W=2 nf=2 ad='int((nf+1)/2) * W/nf * 0.29' as='int((nf+2)/2) * W/nf * 0.29'
+ pd='2*int((nf+1)/2) * (W/nf + 0.29)' ps='2*int((nf+2)/2) * (W/nf + 0.29)' nrd='0.29 / W' nrs='0.29 / W' sa=0 sb=0 sd=0 mult=1 m=1
XC1 UP_input UP_b sky130_fd_pr__cap_mim_m3_1 W=6 L=4.2 MF=1 m=1
XC2 DOWN DOWN_input sky130_fd_pr__cap_mim_m3_1 W=2.6 L=2.6 MF=1 m=1
.ends


* expanding   symbol:  /foss/designs/my_design/projects/pll/divider/xschem_ngspice/inverter.sym # of pins=4
** sym_path: /foss/designs/my_design/projects/pll/divider/xschem_ngspice/inverter.sym
** sch_path: /foss/designs/my_design/projects/pll/divider/xschem_ngspice/inverter.sch
.subckt inverter VDDA VIN VOUT GNDA
*.ipin VIN
*.ipin VDDA
*.ipin GNDA
*.opin VOUT
XM31 VOUT VIN VDDA VDDA sky130_fd_pr__pfet_01v8 L=0.15 W=2 nf=2 ad='int((nf+1)/2) * W/nf * 0.29' as='int((nf+2)/2) * W/nf * 0.29' pd='2*int((nf+1)/2) * (W/nf + 0.29)'
+ ps='2*int((nf+2)/2) * (W/nf + 0.29)' nrd='0.29 / W' nrs='0.29 / W' sa=0 sb=0 sd=0 mult=1 m=1
XM32 VOUT VIN GNDA GNDA sky130_fd_pr__nfet_01v8 L=0.15 W=1 nf=1 ad='int((nf+1)/2) * W/nf * 0.29' as='int((nf+2)/2) * W/nf * 0.29' pd='2*int((nf+1)/2) * (W/nf + 0.29)'
+ ps='2*int((nf+2)/2) * (W/nf + 0.29)' nrd='0.29 / W' nrs='0.29 / W' sa=0 sb=0 sd=0 mult=1 m=1
.ends


* expanding   symbol:  /foss/designs/my_design/projects/pll/divider/xschem_ngspice/divide_by_120/divide_by_120_6.sym # of pins=4
** sym_path: /foss/designs/my_design/projects/pll/divider/xschem_ngspice/divide_by_120/divide_by_120_6.sym
** sch_path: /foss/designs/my_design/projects/pll/divider/xschem_ngspice/divide_by_120/divide_by_120_6.sch
.subckt divide_by_120_6 VDDA V_OUT120 V_OSC GNDA
*.opin V_OUT120
*.ipin V_OSC
*.ipin GNDA
*.ipin VDDA
x5 V_OUT24 V_OUT8 VDDA GNDA TSPC_FF_ratioed_divide3_2
x6 V_OUT120 V_OUT24 VDDA GNDA TSPC_FF_ratioed_divide5_2
x9 V_OUT2 V_OSC VDDA GNDA TSPC_FF_ratioed_divide2_2
x1 V_OUT4 V_OUT2 VDDA GNDA TSPC_FF_ratioed_divide2_2
x2 V_OUT8 V_OUT4 VDDA GNDA TSPC_FF_ratioed_divide2_2
.ends


* expanding   symbol:  /foss/designs/my_design/projects/pll/charge_pump/xschem_ngspice/rail_to_rail_opamp6.sym # of pins=5
** sym_path: /foss/designs/my_design/projects/pll/charge_pump/xschem_ngspice/rail_to_rail_opamp6.sym
** sch_path: /foss/designs/my_design/projects/pll/charge_pump/xschem_ngspice/rail_to_rail_opamp6.sch
.subckt rail_to_rail_opamp6 VDDA Vin+ Vin- Vout GNDA
*.opin Vout
*.ipin Vin+
*.ipin Vin-
*.ipin VDDA
*.ipin GNDA
XM2 n_left Vin+ v_common_n GNDA sky130_fd_pr__nfet_01v8 L=0.15 W=1 nf=1 ad='int((nf+1)/2) * W/nf * 0.29' as='int((nf+2)/2) * W/nf * 0.29'
+ pd='2*int((nf+1)/2) * (W/nf + 0.29)' ps='2*int((nf+2)/2) * (W/nf + 0.29)' nrd='0.29 / W' nrs='0.29 / W' sa=0 sb=0 sd=0 mult=1 m=1
XM3 n_right Vin- v_common_n GNDA sky130_fd_pr__nfet_01v8 L=0.15 W=1 nf=1 ad='int((nf+1)/2) * W/nf * 0.29' as='int((nf+2)/2) * W/nf * 0.29'
+ pd='2*int((nf+1)/2) * (W/nf + 0.29)' ps='2*int((nf+2)/2) * (W/nf + 0.29)' nrd='0.29 / W' nrs='0.29 / W' sa=0 sb=0 sd=0 mult=1 m=1
XM5 n_left n_left VDDA VDDA sky130_fd_pr__pfet_01v8 L=0.15 W=2 nf=2 ad='int((nf+1)/2) * W/nf * 0.29' as='int((nf+2)/2) * W/nf * 0.29'
+ pd='2*int((nf+1)/2) * (W/nf + 0.29)' ps='2*int((nf+2)/2) * (W/nf + 0.29)' nrd='0.29 / W' nrs='0.29 / W' sa=0 sb=0 sd=0 mult=1 m=1
XM4 n_right n_left VDDA VDDA sky130_fd_pr__pfet_01v8 L=0.15 W=2 nf=2 ad='int((nf+1)/2) * W/nf * 0.29' as='int((nf+2)/2) * W/nf * 0.29'
+ pd='2*int((nf+1)/2) * (W/nf + 0.29)' ps='2*int((nf+2)/2) * (W/nf + 0.29)' nrd='0.29 / W' nrs='0.29 / W' sa=0 sb=0 sd=0 mult=1 m=1
XM6 v_common_p p_bias VDDA VDDA sky130_fd_pr__pfet_01v8 L=0.5 W=10 nf=2 ad='int((nf+1)/2) * W/nf * 0.29' as='int((nf+2)/2) * W/nf * 0.29'
+ pd='2*int((nf+1)/2) * (W/nf + 0.29)' ps='2*int((nf+2)/2) * (W/nf + 0.29)' nrd='0.29 / W' nrs='0.29 / W' sa=0 sb=0 sd=0 mult=1 m=1
XM7 p_left Vin+ v_common_p VDDA sky130_fd_pr__pfet_01v8 L=0.15 W=2 nf=2 ad='int((nf+1)/2) * W/nf * 0.29' as='int((nf+2)/2) * W/nf * 0.29'
+ pd='2*int((nf+1)/2) * (W/nf + 0.29)' ps='2*int((nf+2)/2) * (W/nf + 0.29)' nrd='0.29 / W' nrs='0.29 / W' sa=0 sb=0 sd=0 mult=1 m=1
XM8 p_right Vin- v_common_p VDDA sky130_fd_pr__pfet_01v8 L=0.15 W=2 nf=2 ad='int((nf+1)/2) * W/nf * 0.29' as='int((nf+2)/2) * W/nf * 0.29'
+ pd='2*int((nf+1)/2) * (W/nf + 0.29)' ps='2*int((nf+2)/2) * (W/nf + 0.29)' nrd='0.29 / W' nrs='0.29 / W' sa=0 sb=0 sd=0 mult=1 m=1
XM9 p_left p_left GNDA GNDA sky130_fd_pr__nfet_01v8 L=0.15 W=1 nf=1 ad='int((nf+1)/2) * W/nf * 0.29' as='int((nf+2)/2) * W/nf * 0.29'
+ pd='2*int((nf+1)/2) * (W/nf + 0.29)' ps='2*int((nf+2)/2) * (W/nf + 0.29)' nrd='0.29 / W' nrs='0.29 / W' sa=0 sb=0 sd=0 mult=1 m=1
XM10 p_right p_left GNDA GNDA sky130_fd_pr__nfet_01v8 L=0.15 W=1 nf=1 ad='int((nf+1)/2) * W/nf * 0.29' as='int((nf+2)/2) * W/nf * 0.29'
+ pd='2*int((nf+1)/2) * (W/nf + 0.29)' ps='2*int((nf+2)/2) * (W/nf + 0.29)' nrd='0.29 / W' nrs='0.29 / W' sa=0 sb=0 sd=0 mult=1 m=1
XM1 v_common_n n_bias GNDA GNDA sky130_fd_pr__nfet_01v8 L=0.5 W=5 nf=1 ad='int((nf+1)/2) * W/nf * 0.29' as='int((nf+2)/2) * W/nf * 0.29'
+ pd='2*int((nf+1)/2) * (W/nf + 0.29)' ps='2*int((nf+2)/2) * (W/nf + 0.29)' nrd='0.29 / W' nrs='0.29 / W' sa=0 sb=0 sd=0 mult=1 m=1
XM11 net1 n_right VDDA VDDA sky130_fd_pr__pfet_01v8 L=0.15 W=4 nf=2 ad='int((nf+1)/2) * W/nf * 0.29' as='int((nf+2)/2) * W/nf * 0.29'
+ pd='2*int((nf+1)/2) * (W/nf + 0.29)' ps='2*int((nf+2)/2) * (W/nf + 0.29)' nrd='0.29 / W' nrs='0.29 / W' sa=0 sb=0 sd=0 mult=1 m=1
XM12 Vout p_right GNDA GNDA sky130_fd_pr__nfet_01v8 L=0.15 W=2 nf=1 ad='int((nf+1)/2) * W/nf * 0.29' as='int((nf+2)/2) * W/nf * 0.29'
+ pd='2*int((nf+1)/2) * (W/nf + 0.29)' ps='2*int((nf+2)/2) * (W/nf + 0.29)' nrd='0.29 / W' nrs='0.29 / W' sa=0 sb=0 sd=0 mult=1 m=1
XM13 n_bias n_bias GNDA GNDA sky130_fd_pr__nfet_01v8 L=0.5 W=5 nf=1 ad='int((nf+1)/2) * W/nf * 0.29' as='int((nf+2)/2) * W/nf * 0.29'
+ pd='2*int((nf+1)/2) * (W/nf + 0.29)' ps='2*int((nf+2)/2) * (W/nf + 0.29)' nrd='0.29 / W' nrs='0.29 / W' sa=0 sb=0 sd=0 mult=1 m=1
XM15 p_bias p_bias VDDA VDDA sky130_fd_pr__pfet_01v8 L=0.5 W=10 nf=2 ad='int((nf+1)/2) * W/nf * 0.29' as='int((nf+2)/2) * W/nf * 0.29'
+ pd='2*int((nf+1)/2) * (W/nf + 0.29)' ps='2*int((nf+2)/2) * (W/nf + 0.29)' nrd='0.29 / W' nrs='0.29 / W' sa=0 sb=0 sd=0 mult=1 m=1
Vmeas p_bias net2 0
.save i(vmeas)
XC1 n_right net3 sky130_fd_pr__cap_mim_m3_1 W=10 L=10 MF=1 m=1
XC2 p_right net4 sky130_fd_pr__cap_mim_m3_1 W=10 L=10 MF=1 m=1
XR1 net1 net3 GNDA sky130_fd_pr__res_xhigh_po_0p35 L=1.14 mult=1 m=1
XR2 Vout net4 GNDA sky130_fd_pr__res_xhigh_po_0p35 L=0.86 mult=1 m=1
XR3 n_bias net2 GNDA sky130_fd_pr__res_xhigh_po_5p73 L=1 mult=1 m=1
Vmeas1 net1 Vout 0
.save i(vmeas1)
.ends


* expanding   symbol:  /foss/designs/my_design/projects/pll/divider/xschem_ngspice/TSPC_FF_ratioed_divide3_2.sym # of pins=4
** sym_path: /foss/designs/my_design/projects/pll/divider/xschem_ngspice/TSPC_FF_ratioed_divide3_2.sym
** sch_path: /foss/designs/my_design/projects/pll/divider/xschem_ngspice/TSPC_FF_ratioed_divide3_2.sch
.subckt TSPC_FF_ratioed_divide3_2 VOUT VIN VDDA GNDA
*.ipin VIN
*.opin VOUT
*.ipin VDDA
*.ipin GNDA
XM24 net7 CLK VDDA VDDA sky130_fd_pr__pfet_01v8 L=0.15 W=0.43 nf=1 ad='int((nf+1)/2) * W/nf * 0.29' as='int((nf+2)/2) * W/nf * 0.29'
+ pd='2*int((nf+1)/2) * (W/nf + 0.29)' ps='2*int((nf+2)/2) * (W/nf + 0.29)' nrd='0.29 / W' nrs='0.29 / W' sa=0 sb=0 sd=0 mult=1 m=1
XM29 net7 net1 GNDA GNDA sky130_fd_pr__nfet_01v8 L=0.15 W=0.43 nf=1 ad='int((nf+1)/2) * W/nf * 0.29' as='int((nf+2)/2) * W/nf * 0.29'
+ pd='2*int((nf+1)/2) * (W/nf + 0.29)' ps='2*int((nf+2)/2) * (W/nf + 0.29)' nrd='0.29 / W' nrs='0.29 / W' sa=0 sb=0 sd=0 mult=1 m=1
XM30 net1 net2 VDDA VDDA sky130_fd_pr__pfet_01v8 L=0.15 W=0.43 nf=1 ad='int((nf+1)/2) * W/nf * 0.29' as='int((nf+2)/2) * W/nf * 0.29'
+ pd='2*int((nf+1)/2) * (W/nf + 0.29)' ps='2*int((nf+2)/2) * (W/nf + 0.29)' nrd='0.29 / W' nrs='0.29 / W' sa=0 sb=0 sd=0 mult=1 m=1
XM31 net1 CLK GNDA GNDA sky130_fd_pr__nfet_01v8 L=0.15 W=1.5 nf=1 ad='int((nf+1)/2) * W/nf * 0.29' as='int((nf+2)/2) * W/nf * 0.29'
+ pd='2*int((nf+1)/2) * (W/nf + 0.29)' ps='2*int((nf+2)/2) * (W/nf + 0.29)' nrd='0.29 / W' nrs='0.29 / W' sa=0 sb=0 sd=0 mult=1 m=1
XM32 net2 VOUT VDDA VDDA sky130_fd_pr__pfet_01v8 L=0.15 W=0.43 nf=1 ad='int((nf+1)/2) * W/nf * 0.29' as='int((nf+2)/2) * W/nf * 0.29'
+ pd='2*int((nf+1)/2) * (W/nf + 0.29)' ps='2*int((nf+2)/2) * (W/nf + 0.29)' nrd='0.29 / W' nrs='0.29 / W' sa=0 sb=0 sd=0 mult=1 m=1
XM33 net8 VOUT GNDA GNDA sky130_fd_pr__nfet_01v8 L=0.15 W=0.43 nf=1 ad='int((nf+1)/2) * W/nf * 0.29' as='int((nf+2)/2) * W/nf * 0.29'
+ pd='2*int((nf+1)/2) * (W/nf + 0.29)' ps='2*int((nf+2)/2) * (W/nf + 0.29)' nrd='0.29 / W' nrs='0.29 / W' sa=0 sb=0 sd=0 mult=1 m=1
XM28 net2 CLK net8 GNDA sky130_fd_pr__nfet_01v8 L=0.15 W=0.43 nf=1 ad='int((nf+1)/2) * W/nf * 0.29' as='int((nf+2)/2) * W/nf * 0.29'
+ pd='2*int((nf+1)/2) * (W/nf + 0.29)' ps='2*int((nf+2)/2) * (W/nf + 0.29)' nrd='0.29 / W' nrs='0.29 / W' sa=0 sb=0 sd=0 mult=1 m=1
XM34 net6 CLK VDDA VDDA sky130_fd_pr__pfet_01v8 L=0.15 W=0.43 nf=1 ad='int((nf+1)/2) * W/nf * 0.29' as='int((nf+2)/2) * W/nf * 0.29'
+ pd='2*int((nf+1)/2) * (W/nf + 0.29)' ps='2*int((nf+2)/2) * (W/nf + 0.29)' nrd='0.29 / W' nrs='0.29 / W' sa=0 sb=0 sd=0 mult=1 m=1
XM39 net6 net4 GNDA GNDA sky130_fd_pr__nfet_01v8 L=0.15 W=0.43 nf=1 ad='int((nf+1)/2) * W/nf * 0.29' as='int((nf+2)/2) * W/nf * 0.29'
+ pd='2*int((nf+1)/2) * (W/nf + 0.29)' ps='2*int((nf+2)/2) * (W/nf + 0.29)' nrd='0.29 / W' nrs='0.29 / W' sa=0 sb=0 sd=0 mult=1 m=1
XM40 net4 net5 VDDA VDDA sky130_fd_pr__pfet_01v8 L=0.15 W=0.43 nf=1 ad='int((nf+1)/2) * W/nf * 0.29' as='int((nf+2)/2) * W/nf * 0.29'
+ pd='2*int((nf+1)/2) * (W/nf + 0.29)' ps='2*int((nf+2)/2) * (W/nf + 0.29)' nrd='0.29 / W' nrs='0.29 / W' sa=0 sb=0 sd=0 mult=1 m=1
XM41 net4 CLK GNDA GNDA sky130_fd_pr__nfet_01v8 L=0.15 W=1.5 nf=1 ad='int((nf+1)/2) * W/nf * 0.29' as='int((nf+2)/2) * W/nf * 0.29'
+ pd='2*int((nf+1)/2) * (W/nf + 0.29)' ps='2*int((nf+2)/2) * (W/nf + 0.29)' nrd='0.29 / W' nrs='0.29 / W' sa=0 sb=0 sd=0 mult=1 m=1
XM42 net5 net6 VDDA VDDA sky130_fd_pr__pfet_01v8 L=0.15 W=0.43 nf=1 ad='int((nf+1)/2) * W/nf * 0.29' as='int((nf+2)/2) * W/nf * 0.29'
+ pd='2*int((nf+1)/2) * (W/nf + 0.29)' ps='2*int((nf+2)/2) * (W/nf + 0.29)' nrd='0.29 / W' nrs='0.29 / W' sa=0 sb=0 sd=0 mult=1 m=1
XM43 net9 net7 net3 GNDA sky130_fd_pr__nfet_01v8 L=0.15 W=0.43 nf=1 ad='int((nf+1)/2) * W/nf * 0.29' as='int((nf+2)/2) * W/nf * 0.29'
+ pd='2*int((nf+1)/2) * (W/nf + 0.29)' ps='2*int((nf+2)/2) * (W/nf + 0.29)' nrd='0.29 / W' nrs='0.29 / W' sa=0 sb=0 sd=0 mult=1 m=1
XM44 net5 CLK net9 GNDA sky130_fd_pr__nfet_01v8 L=0.15 W=0.43 nf=1 ad='int((nf+1)/2) * W/nf * 0.29' as='int((nf+2)/2) * W/nf * 0.29'
+ pd='2*int((nf+1)/2) * (W/nf + 0.29)' ps='2*int((nf+2)/2) * (W/nf + 0.29)' nrd='0.29 / W' nrs='0.29 / W' sa=0 sb=0 sd=0 mult=1 m=1
XM4 VOUT net6 VDDA VDDA sky130_fd_pr__pfet_01v8 L=0.15 W=0.86 nf=2 ad='int((nf+1)/2) * W/nf * 0.29' as='int((nf+2)/2) * W/nf * 0.29'
+ pd='2*int((nf+1)/2) * (W/nf + 0.29)' ps='2*int((nf+2)/2) * (W/nf + 0.29)' nrd='0.29 / W' nrs='0.29 / W' sa=0 sb=0 sd=0 mult=1 m=1
XM5 VOUT net6 GNDA GNDA sky130_fd_pr__nfet_01v8 L=0.15 W=0.43 nf=1 ad='int((nf+1)/2) * W/nf * 0.29' as='int((nf+2)/2) * W/nf * 0.29'
+ pd='2*int((nf+1)/2) * (W/nf + 0.29)' ps='2*int((nf+2)/2) * (W/nf + 0.29)' nrd='0.29 / W' nrs='0.29 / W' sa=0 sb=0 sd=0 mult=1 m=1
XM6 net3 net6 GNDA GNDA sky130_fd_pr__nfet_01v8 L=0.15 W=0.43 nf=1 ad='int((nf+1)/2) * W/nf * 0.29' as='int((nf+2)/2) * W/nf * 0.29'
+ pd='2*int((nf+1)/2) * (W/nf + 0.29)' ps='2*int((nf+2)/2) * (W/nf + 0.29)' nrd='0.29 / W' nrs='0.29 / W' sa=0 sb=0 sd=0 mult=1 m=1
XM7 net5 net7 VDDA VDDA sky130_fd_pr__pfet_01v8 L=0.15 W=0.43 nf=1 ad='int((nf+1)/2) * W/nf * 0.29' as='int((nf+2)/2) * W/nf * 0.29'
+ pd='2*int((nf+1)/2) * (W/nf + 0.29)' ps='2*int((nf+2)/2) * (W/nf + 0.29)' nrd='0.29 / W' nrs='0.29 / W' sa=0 sb=0 sd=0 mult=1 m=1
XM37 CLK VIN VDDA VDDA sky130_fd_pr__pfet_01v8 L=0.15 W=0.86 nf=2 ad='int((nf+1)/2) * W/nf * 0.29' as='int((nf+2)/2) * W/nf * 0.29'
+ pd='2*int((nf+1)/2) * (W/nf + 0.29)' ps='2*int((nf+2)/2) * (W/nf + 0.29)' nrd='0.29 / W' nrs='0.29 / W' sa=0 sb=0 sd=0 mult=1 m=1
XM38 CLK VIN GNDA GNDA sky130_fd_pr__nfet_01v8 L=0.15 W=0.43 nf=1 ad='int((nf+1)/2) * W/nf * 0.29' as='int((nf+2)/2) * W/nf * 0.29'
+ pd='2*int((nf+1)/2) * (W/nf + 0.29)' ps='2*int((nf+2)/2) * (W/nf + 0.29)' nrd='0.29 / W' nrs='0.29 / W' sa=0 sb=0 sd=0 mult=1 m=1
.ends


* expanding   symbol:  /foss/designs/my_design/projects/pll/divider/xschem_ngspice/TSPC_FF_ratioed_divide5_2.sym # of pins=4
** sym_path: /foss/designs/my_design/projects/pll/divider/xschem_ngspice/TSPC_FF_ratioed_divide5_2.sym
** sch_path: /foss/designs/my_design/projects/pll/divider/xschem_ngspice/TSPC_FF_ratioed_divide5_2.sch
.subckt TSPC_FF_ratioed_divide5_2 VOUT VIN VDDA GNDA
*.ipin VIN
*.opin VOUT
*.ipin VDDA
*.ipin GNDA
XM24 net10 VIN VDDA VDDA sky130_fd_pr__pfet_01v8 L=0.15 W=0.43 nf=1 ad='int((nf+1)/2) * W/nf * 0.29' as='int((nf+2)/2) * W/nf * 0.29'
+ pd='2*int((nf+1)/2) * (W/nf + 0.29)' ps='2*int((nf+2)/2) * (W/nf + 0.29)' nrd='0.29 / W' nrs='0.29 / W' sa=0 sb=0 sd=0 mult=1 m=1
XM29 net10 net1 GNDA GNDA sky130_fd_pr__nfet_01v8 L=0.15 W=0.43 nf=1 ad='int((nf+1)/2) * W/nf * 0.29' as='int((nf+2)/2) * W/nf * 0.29'
+ pd='2*int((nf+1)/2) * (W/nf + 0.29)' ps='2*int((nf+2)/2) * (W/nf + 0.29)' nrd='0.29 / W' nrs='0.29 / W' sa=0 sb=0 sd=0 mult=1 m=1
XM30 net1 net3 VDDA VDDA sky130_fd_pr__pfet_01v8 L=0.15 W=0.43 nf=1 ad='int((nf+1)/2) * W/nf * 0.29' as='int((nf+2)/2) * W/nf * 0.29'
+ pd='2*int((nf+1)/2) * (W/nf + 0.29)' ps='2*int((nf+2)/2) * (W/nf + 0.29)' nrd='0.29 / W' nrs='0.29 / W' sa=0 sb=0 sd=0 mult=1 m=1
XM31 net1 VIN GNDA GNDA sky130_fd_pr__nfet_01v8 L=0.15 W=1.5 nf=1 ad='int((nf+1)/2) * W/nf * 0.29' as='int((nf+2)/2) * W/nf * 0.29'
+ pd='2*int((nf+1)/2) * (W/nf + 0.29)' ps='2*int((nf+2)/2) * (W/nf + 0.29)' nrd='0.29 / W' nrs='0.29 / W' sa=0 sb=0 sd=0 mult=1 m=1
XM32 net3 net2 VDDA VDDA sky130_fd_pr__pfet_01v8 L=0.15 W=0.43 nf=1 ad='int((nf+1)/2) * W/nf * 0.29' as='int((nf+2)/2) * W/nf * 0.29'
+ pd='2*int((nf+1)/2) * (W/nf + 0.29)' ps='2*int((nf+2)/2) * (W/nf + 0.29)' nrd='0.29 / W' nrs='0.29 / W' sa=0 sb=0 sd=0 mult=1 m=1
XM33 net11 net2 GNDA GNDA sky130_fd_pr__nfet_01v8 L=0.15 W=0.43 nf=1 ad='int((nf+1)/2) * W/nf * 0.29' as='int((nf+2)/2) * W/nf * 0.29'
+ pd='2*int((nf+1)/2) * (W/nf + 0.29)' ps='2*int((nf+2)/2) * (W/nf + 0.29)' nrd='0.29 / W' nrs='0.29 / W' sa=0 sb=0 sd=0 mult=1 m=1
XM28 net3 VIN net11 GNDA sky130_fd_pr__nfet_01v8 L=0.15 W=0.43 nf=1 ad='int((nf+1)/2) * W/nf * 0.29' as='int((nf+2)/2) * W/nf * 0.29'
+ pd='2*int((nf+1)/2) * (W/nf + 0.29)' ps='2*int((nf+2)/2) * (W/nf + 0.29)' nrd='0.29 / W' nrs='0.29 / W' sa=0 sb=0 sd=0 mult=1 m=1
XM34 Q2_b VIN VDDA VDDA sky130_fd_pr__pfet_01v8 L=0.15 W=0.43 nf=1 ad='int((nf+1)/2) * W/nf * 0.29' as='int((nf+2)/2) * W/nf * 0.29'