* PEX produced on Tue Aug 26 07:45:19 AM CEST 2025 using /foss/tools/osic-multitool/iic-pex.sh with m=3 and s=1
* NGSPICE file created from bgr_magic.ext - technology: sky130A

.subckt bgr_magic VDDA CURRENT_OUTPUT GNDA
X0 V_CUR_REF_REG.t12 V2.t10 VDDA.t177 VDDA.t176 sky130_fd_pr__pfet_01v8 ad=0.2 pd=1.4 as=0.2 ps=1.4 w=1 l=0.15
X1 1st_Vout_1.t7 cap_res1.t20 sky130_fd_pr__cap_mim_m3_1 l=2 w=2
X2 CURRENT_OUTPUT.t11 V2.t11 VDDA.t175 VDDA.t174 sky130_fd_pr__pfet_01v8 ad=0.2 pd=1.4 as=0.2 ps=1.4 w=1 l=0.15
X3 Vin+.t5 V_TOP.t14 VDDA.t86 VDDA.t85 sky130_fd_pr__pfet_01v8 ad=0.6 pd=3.4 as=0.6 ps=3.4 w=3 l=0.5
X4 GNDA.t24 START_UP_NFET1.t1 START_UP_NFET1.t0 GNDA.t23 sky130_fd_pr__nfet_01v8 ad=0.4 pd=2.8 as=0.2 ps=1.4 w=1 l=10
X5 1st_Vout_2.t6 a_36200_n1130.t13 VDDA.t59 VDDA.t58 sky130_fd_pr__pfet_01v8 ad=0.2 pd=1.4 as=0.2 ps=1.4 w=1 l=0.2
X6 1st_Vout_1.t3 V_mir1.t13 VDDA.t21 VDDA.t20 sky130_fd_pr__pfet_01v8 ad=0.2 pd=1.4 as=0.2 ps=1.4 w=1 l=0.2
X7 1st_Vout_2.t7 cap_res2.t20 sky130_fd_pr__cap_mim_m3_1 l=2 w=2
X8 V_CUR_REF_REG.t2 GNDA.t35 GNDA.t34 sky130_fd_pr__res_xhigh_po_0p35 l=1
X9 1st_Vout_2.t8 cap_res2.t19 sky130_fd_pr__cap_mim_m3_1 l=2 w=2
X10 1st_Vout_2.t9 cap_res2.t18 sky130_fd_pr__cap_mim_m3_1 l=2 w=2
X11 VDDA.t74 V_TOP.t15 Vin-.t7 VDDA.t73 sky130_fd_pr__pfet_01v8 ad=0.6 pd=3.4 as=0.6 ps=3.4 w=3 l=0.5
X12 VDDA.t99 1st_Vout_1.t8 V_TOP.t13 VDDA.t98 sky130_fd_pr__pfet_01v8 ad=0.2 pd=1.4 as=0.2 ps=1.4 w=1 l=0.2
X13 Vin-.t2 START_UP.t6 V_TOP.t2 VDDA.t82 sky130_fd_pr__pfet_01v8 ad=0.2 pd=1.4 as=0.2 ps=1.4 w=1 l=0.15
X14 V2.t6 VDDA.t133 VDDA.t135 VDDA.t134 sky130_fd_pr__pfet_01v8 ad=0.2 pd=1.4 as=0.4 ps=2.8 w=1 l=0.2
X15 1st_Vout_2.t10 cap_res2.t17 sky130_fd_pr__cap_mim_m3_1 l=2 w=2
X16 1st_Vout_2.t11 cap_res2.t16 sky130_fd_pr__cap_mim_m3_1 l=2 w=2
X17 V_CUR_REF_REG.t11 V2.t12 VDDA.t173 VDDA.t172 sky130_fd_pr__pfet_01v8 ad=0.2 pd=1.4 as=0.2 ps=1.4 w=1 l=0.15
X18 1st_Vout_1.t9 cap_res1.t19 sky130_fd_pr__cap_mim_m3_1 l=2 w=2
X19 VDDA.t15 V_mir1.t14 1st_Vout_1.t2 VDDA.t14 sky130_fd_pr__pfet_01v8 ad=0.2 pd=1.4 as=0.2 ps=1.4 w=1 l=0.2
X20 1st_Vout_2.t12 cap_res2.t15 sky130_fd_pr__cap_mim_m3_1 l=2 w=2
X21 CURRENT_OUTPUT.t10 V2.t13 VDDA.t171 VDDA.t170 sky130_fd_pr__pfet_01v8 ad=0.2 pd=1.4 as=0.2 ps=1.4 w=1 l=0.15
X22 V1.t6 V_TOP.t16 VDDA.t51 VDDA.t50 sky130_fd_pr__pfet_01v8 ad=0.6 pd=3.4 as=0.6 ps=3.4 w=3 l=0.5
X23 V_TOP.t7 VDDA.t130 VDDA.t132 VDDA.t131 sky130_fd_pr__pfet_01v8 ad=0.2 pd=1.4 as=0.4 ps=2.8 w=1 l=0.2
X24 1st_Vout_2.t13 cap_res2.t14 sky130_fd_pr__cap_mim_m3_1 l=2 w=2
X25 1st_Vout_1.t10 cap_res1.t18 sky130_fd_pr__cap_mim_m3_1 l=2 w=2
X26 VDDA.t169 V2.t14 V_CUR_REF_REG.t10 VDDA.t168 sky130_fd_pr__pfet_01v8 ad=0.2 pd=1.4 as=0.2 ps=1.4 w=1 l=0.15
X27 1st_Vout_1.t11 cap_res1.t17 sky130_fd_pr__cap_mim_m3_1 l=2 w=2
X28 V_TOP.t17 VDDA.t0 sky130_fd_pr__cap_mim_m3_1 l=2 w=2
X29 VDDA.t129 VDDA.t127 V2.t7 VDDA.t128 sky130_fd_pr__pfet_01v8 ad=0.4 pd=2.8 as=0.2 ps=1.4 w=1 l=0.2
X30 1st_Vout_1.t12 cap_res1.t16 sky130_fd_pr__cap_mim_m3_1 l=2 w=2
X31 VDDA.t167 V2.t15 CURRENT_OUTPUT.t9 VDDA.t166 sky130_fd_pr__pfet_01v8 ad=0.2 pd=1.4 as=0.2 ps=1.4 w=1 l=0.15
X32 1st_Vout_2.t5 a_36200_n1130.t14 VDDA.t183 VDDA.t182 sky130_fd_pr__pfet_01v8 ad=0.2 pd=1.4 as=0.2 ps=1.4 w=1 l=0.2
X33 1st_Vout_1.t13 cap_res1.t15 sky130_fd_pr__cap_mim_m3_1 l=2 w=2
X34 V_TOP.t18 VDDA.t88 sky130_fd_pr__cap_mim_m3_1 l=2 w=2
X35 V_CUR_REF_REG.t9 V2.t16 VDDA.t165 VDDA.t164 sky130_fd_pr__pfet_01v8 ad=0.2 pd=1.4 as=0.2 ps=1.4 w=1 l=0.15
X36 VDDA.t126 VDDA.t124 V_TOP.t6 VDDA.t125 sky130_fd_pr__pfet_01v8 ad=0.4 pd=2.8 as=0.2 ps=1.4 w=1 l=0.2
X37 V_TOP.t19 VDDA.t76 sky130_fd_pr__cap_mim_m3_1 l=2 w=2
X38 1st_Vout_2.t14 cap_res2.t13 sky130_fd_pr__cap_mim_m3_1 l=2 w=2
X39 V_TOP.t20 VDDA.t87 sky130_fd_pr__cap_mim_m3_1 l=2 w=2
X40 VDDA.t195 a_36200_n1130.t10 a_36200_n1130.t11 VDDA.t194 sky130_fd_pr__pfet_01v8 ad=0.2 pd=1.4 as=0.2 ps=1.4 w=1 l=0.2
X41 CURRENT_OUTPUT.t1 VDDA.t121 VDDA.t123 VDDA.t122 sky130_fd_pr__pfet_01v8 ad=0.2 pd=1.4 as=0.4 ps=2.8 w=1 l=0.15
X42 a_38370_n6700.t1 a_38490_n7778.t1 GNDA.t4 sky130_fd_pr__res_xhigh_po_0p35 l=3.35
X43 V_p_2.t1 VDDA.t202 GNDA.t32 GNDA.t31 sky130_fd_pr__nfet_01v8 ad=1 pd=5.8 as=1 ps=5.8 w=2.5 l=5
X44 VDDA.t163 V2.t17 V_CUR_REF_REG.t8 VDDA.t162 sky130_fd_pr__pfet_01v8 ad=0.2 pd=1.4 as=0.2 ps=1.4 w=1 l=0.15
X45 VDDA.t49 a_36200_n1130.t15 1st_Vout_2.t4 VDDA.t48 sky130_fd_pr__pfet_01v8 ad=0.2 pd=1.4 as=0.2 ps=1.4 w=1 l=0.2
X46 VDDA.t84 V_mir1.t15 1st_Vout_1.t5 VDDA.t83 sky130_fd_pr__pfet_01v8 ad=0.2 pd=1.4 as=0.2 ps=1.4 w=1 l=0.2
X47 VDDA.t19 V_mir1.t10 V_mir1.t11 VDDA.t18 sky130_fd_pr__pfet_01v8 ad=0.2 pd=1.4 as=0.2 ps=1.4 w=1 l=0.2
X48 VDDA.t66 V_mir1.t8 V_mir1.t9 VDDA.t65 sky130_fd_pr__pfet_01v8 ad=0.2 pd=1.4 as=0.2 ps=1.4 w=1 l=0.2
X49 VDDA.t201 a_36200_n1130.t8 a_36200_n1130.t9 VDDA.t200 sky130_fd_pr__pfet_01v8 ad=0.2 pd=1.4 as=0.2 ps=1.4 w=1 l=0.2
X50 VDDA.t137 1st_Vout_1.t14 V_TOP.t12 VDDA.t136 sky130_fd_pr__pfet_01v8 ad=0.2 pd=1.4 as=0.2 ps=1.4 w=1 l=0.2
X51 VDDA.t120 VDDA.t118 CURRENT_OUTPUT.t0 VDDA.t119 sky130_fd_pr__pfet_01v8 ad=0.4 pd=2.8 as=0.2 ps=1.4 w=1 l=0.15
X52 1st_Vout_2.t15 cap_res2.t12 sky130_fd_pr__cap_mim_m3_1 l=2 w=2
X53 V_p_2.t2 V_CUR_REF_REG.t13 1st_Vout_2.t0 GNDA.t33 sky130_fd_pr__nfet_01v8 ad=0.5 pd=2.9 as=1 ps=5.8 w=2.5 l=0.2
X54 VDDA.t2 a_36200_n1130.t16 1st_Vout_2.t3 VDDA.t1 sky130_fd_pr__pfet_01v8 ad=0.2 pd=1.4 as=0.2 ps=1.4 w=1 l=0.2
X55 1st_Vout_2.t16 cap_res2.t11 sky130_fd_pr__cap_mim_m3_1 l=2 w=2
X56 Vin+.t0 a_38040_n7928.t0 GNDA.t2 sky130_fd_pr__res_xhigh_po_0p35 l=6
X57 V_TOP.t0 cap_res1.t0 GNDA.t9 sky130_fd_pr__res_high_po_0p35 l=2.05
X58 1st_Vout_2.t17 cap_res2.t10 sky130_fd_pr__cap_mim_m3_1 l=2 w=2
X59 1st_Vout_2.t18 cap_res2.t9 sky130_fd_pr__cap_mim_m3_1 l=2 w=2
X60 VDDA.t45 1st_Vout_2.t19 V2.t2 VDDA.t44 sky130_fd_pr__pfet_01v8 ad=0.2 pd=1.4 as=0.2 ps=1.4 w=1 l=0.2
X61 V1.t2 VDDA.t115 VDDA.t117 VDDA.t116 sky130_fd_pr__pfet_01v8 ad=0.6 pd=3.4 as=1.2 ps=6.8 w=3 l=0.5
X62 VDDA.t93 V_mir1.t6 V_mir1.t7 VDDA.t92 sky130_fd_pr__pfet_01v8 ad=0.2 pd=1.4 as=0.2 ps=1.4 w=1 l=0.2
X63 V_p_1.t0 Vin-.t8 V_mir1.t12 GNDA.t38 sky130_fd_pr__nfet_01v8 ad=0.5 pd=2.9 as=1 ps=5.8 w=2.5 l=0.2
X64 VDDA.t114 VDDA.t112 V_CUR_REF_REG.t1 VDDA.t113 sky130_fd_pr__pfet_01v8 ad=0.4 pd=2.8 as=0.2 ps=1.4 w=1 l=0.15
X65 1st_Vout_2.t20 cap_res2.t8 sky130_fd_pr__cap_mim_m3_1 l=2 w=2
X66 1st_Vout_1.t15 cap_res1.t14 sky130_fd_pr__cap_mim_m3_1 l=2 w=2
X67 VDDA.t199 1st_Vout_2.t21 V2.t9 VDDA.t198 sky130_fd_pr__pfet_01v8 ad=0.2 pd=1.4 as=0.2 ps=1.4 w=1 l=0.2
X68 Vin+.t1 sky130_fd_pr__rf_pnp_05v5_W3p40L3p40_25.Emitter.t0 GNDA.t7 sky130_fd_pr__res_xhigh_po_0p35 l=2.3
X69 1st_Vout_1.t16 cap_res1.t13 sky130_fd_pr__cap_mim_m3_1 l=2 w=2
X70 VDDA.t161 V2.t18 CURRENT_OUTPUT.t8 VDDA.t160 sky130_fd_pr__pfet_01v8 ad=0.2 pd=1.4 as=0.2 ps=1.4 w=1 l=0.15
X71 1st_Vout_2.t22 cap_res2.t7 sky130_fd_pr__cap_mim_m3_1 l=2 w=2
X72 V_TOP.t11 1st_Vout_1.t17 VDDA.t17 VDDA.t16 sky130_fd_pr__pfet_01v8 ad=0.2 pd=1.4 as=0.2 ps=1.4 w=1 l=0.2
X73 1st_Vout_1.t18 cap_res1.t12 sky130_fd_pr__cap_mim_m3_1 l=2 w=2
X74 V_TOP.t21 VDDA.t26 sky130_fd_pr__cap_mim_m3_1 l=2 w=2
X75 VDDA.t6 V_TOP.t22 Vin+.t4 VDDA.t5 sky130_fd_pr__pfet_01v8 ad=0.6 pd=3.4 as=0.6 ps=3.4 w=3 l=0.5
X76 VDDA.t57 a_36200_n1130.t6 a_36200_n1130.t7 VDDA.t56 sky130_fd_pr__pfet_01v8 ad=0.2 pd=1.4 as=0.2 ps=1.4 w=1 l=0.2
X77 V_TOP.t23 VDDA.t75 sky130_fd_pr__cap_mim_m3_1 l=2 w=2
X78 VDDA.t28 1st_Vout_1.t19 V_TOP.t10 VDDA.t27 sky130_fd_pr__pfet_01v8 ad=0.2 pd=1.4 as=0.2 ps=1.4 w=1 l=0.2
X79 1st_Vout_1.t20 cap_res1.t11 sky130_fd_pr__cap_mim_m3_1 l=2 w=2
X80 V_TOP.t24 VDDA.t70 sky130_fd_pr__cap_mim_m3_1 l=2 w=2
X81 V_TOP.t25 VDDA.t196 sky130_fd_pr__cap_mim_m3_1 l=2 w=2
X82 1st_Vout_2.t23 cap_res2.t6 sky130_fd_pr__cap_mim_m3_1 l=2 w=2
X83 Vin+.t3 V_TOP.t26 VDDA.t61 VDDA.t60 sky130_fd_pr__pfet_01v8 ad=0.6 pd=3.4 as=0.6 ps=3.4 w=3 l=0.5
X84 VDDA.t25 V_mir1.t16 1st_Vout_1.t4 VDDA.t24 sky130_fd_pr__pfet_01v8 ad=0.2 pd=1.4 as=0.2 ps=1.4 w=1 l=0.2
X85 V_TOP.t27 VDDA.t180 sky130_fd_pr__cap_mim_m3_1 l=2 w=2
X86 VDDA.t159 V2.t19 CURRENT_OUTPUT.t7 VDDA.t158 sky130_fd_pr__pfet_01v8 ad=0.2 pd=1.4 as=0.2 ps=1.4 w=1 l=0.15
X87 GNDA.t30 VDDA.t203 V2.t5 GNDA.t29 sky130_fd_pr__nfet_01v8 ad=1 pd=5.8 as=1 ps=5.8 w=2.5 l=5
X88 VDDA.t4 V_TOP.t28 V1.t5 VDDA.t3 sky130_fd_pr__pfet_01v8 ad=0.6 pd=3.4 as=0.6 ps=3.4 w=3 l=0.5
X89 V_TOP.t3 VDDA.t204 GNDA.t28 GNDA.t27 sky130_fd_pr__nfet_01v8 ad=1 pd=5.8 as=1.01 ps=6.15 w=2.5 l=5
X90 GNDA.t13 GNDA.t16 sky130_fd_pr__rf_pnp_05v5_W3p40L3p40_25.Emitter.t8 sky130_fd_pr__pnp_05v5_W3p40L3p40
**devattr s=462400,2720
X91 V_TOP.t1 START_UP.t7 Vin-.t1 VDDA.t79 sky130_fd_pr__pfet_01v8 ad=0.2 pd=1.4 as=0.2 ps=1.4 w=1 l=0.15
X92 V_TOP.t29 VDDA.t7 sky130_fd_pr__cap_mim_m3_1 l=2 w=2
X93 Vin-.t0 a_32970_n7928.t0 GNDA.t1 sky130_fd_pr__res_xhigh_po_0p35 l=6
X94 GNDA.t15 GNDA.t14 sky130_fd_pr__rf_pnp_05v5_W3p40L3p40_25.Emitter.t7 sky130_fd_pr__pnp_05v5_W3p40L3p40
**devattr s=462400,2720
X95 VDDA.t157 V2.t20 V_CUR_REF_REG.t7 VDDA.t156 sky130_fd_pr__pfet_01v8 ad=0.2 pd=1.4 as=0.2 ps=1.4 w=1 l=0.15
X96 VDDA.t111 VDDA.t109 V1.t1 VDDA.t110 sky130_fd_pr__pfet_01v8 ad=1.2 pd=6.8 as=0.6 ps=3.4 w=3 l=0.5
X97 GNDA.t13 GNDA.t12 sky130_fd_pr__rf_pnp_05v5_W3p40L3p40_25.Emitter.t6 sky130_fd_pr__pnp_05v5_W3p40L3p40
**devattr s=462400,2720
X98 VDDA.t155 V2.t21 CURRENT_OUTPUT.t6 VDDA.t154 sky130_fd_pr__pfet_01v8 ad=0.2 pd=1.4 as=0.2 ps=1.4 w=1 l=0.15
X99 VDDA.t179 a_36200_n1130.t17 1st_Vout_2.t2 VDDA.t178 sky130_fd_pr__pfet_01v8 ad=0.2 pd=1.4 as=0.2 ps=1.4 w=1 l=0.2
X100 V_TOP.t30 VDDA.t31 sky130_fd_pr__cap_mim_m3_1 l=2 w=2
X101 Vin-.t6 V_TOP.t31 VDDA.t72 VDDA.t71 sky130_fd_pr__pfet_01v8 ad=0.6 pd=3.4 as=0.6 ps=3.4 w=3 l=0.5
X102 a_33090_n6320.t1 GNDA.t11 GNDA.t10 sky130_fd_pr__res_xhigh_po_0p35 l=6
X103 V_TOP.t32 VDDA.t192 sky130_fd_pr__cap_mim_m3_1 l=2 w=2
X104 VDDA.t191 1st_Vout_2.t24 V2.t8 VDDA.t190 sky130_fd_pr__pfet_01v8 ad=0.2 pd=1.4 as=0.2 ps=1.4 w=1 l=0.2
X105 CURRENT_OUTPUT.t5 V2.t22 VDDA.t153 VDDA.t152 sky130_fd_pr__pfet_01v8 ad=0.2 pd=1.4 as=0.2 ps=1.4 w=1 l=0.15
X106 V_TOP.t33 VDDA.t43 sky130_fd_pr__cap_mim_m3_1 l=2 w=2
X107 1st_Vout_2.t25 cap_res2.t5 sky130_fd_pr__cap_mim_m3_1 l=2 w=2
X108 a_37920_n6320.t0 GNDA.t6 GNDA.t2 sky130_fd_pr__res_xhigh_po_0p35 l=6
X109 VDDA.t151 V2.t23 V_CUR_REF_REG.t6 VDDA.t150 sky130_fd_pr__pfet_01v8 ad=0.2 pd=1.4 as=0.2 ps=1.4 w=1 l=0.15
X110 VDDA.t40 V_TOP.t34 Vin+.t2 VDDA.t39 sky130_fd_pr__pfet_01v8 ad=0.6 pd=3.4 as=0.6 ps=3.4 w=3 l=0.5
X111 V_TOP.t35 VDDA.t89 sky130_fd_pr__cap_mim_m3_1 l=2 w=2
X112 a_36200_n1130.t5 a_36200_n1130.t4 VDDA.t11 VDDA.t10 sky130_fd_pr__pfet_01v8 ad=0.2 pd=1.4 as=0.2 ps=1.4 w=1 l=0.2
X113 V_TOP.t9 1st_Vout_1.t21 VDDA.t38 VDDA.t37 sky130_fd_pr__pfet_01v8 ad=0.2 pd=1.4 as=0.2 ps=1.4 w=1 l=0.2
X114 1st_Vout_1.t22 cap_res1.t10 sky130_fd_pr__cap_mim_m3_1 l=2 w=2
X115 VDDA.t149 V2.t24 CURRENT_OUTPUT.t4 VDDA.t148 sky130_fd_pr__pfet_01v8 ad=0.2 pd=1.4 as=0.2 ps=1.4 w=1 l=0.15
X116 1st_Vout_2.t26 cap_res2.t4 sky130_fd_pr__cap_mim_m3_1 l=2 w=2
X117 V_CUR_REF_REG.t5 V2.t25 VDDA.t147 VDDA.t146 sky130_fd_pr__pfet_01v8 ad=0.2 pd=1.4 as=0.2 ps=1.4 w=1 l=0.15
X118 1st_Vout_1.t23 cap_res1.t9 sky130_fd_pr__cap_mim_m3_1 l=2 w=2
X119 START_UP.t5 V_TOP.t36 VDDA.t78 VDDA.t77 sky130_fd_pr__pfet_01v8 ad=0.6 pd=3.4 as=0.6 ps=3.4 w=3 l=0.5
X120 1st_Vout_1.t6 V_mir1.t17 VDDA.t91 VDDA.t90 sky130_fd_pr__pfet_01v8 ad=0.2 pd=1.4 as=0.2 ps=1.4 w=1 l=0.2
X121 V_TOP.t37 VDDA.t197 sky130_fd_pr__cap_mim_m3_1 l=2 w=2
X122 START_UP_NFET1.t0 START_UP.t0 START_UP.t1 GNDA.t0 sky130_fd_pr__nfet_01v8 ad=0.2 pd=1.4 as=0.4 ps=2.8 w=1 l=10
X123 1st_Vout_1.t24 cap_res1.t8 sky130_fd_pr__cap_mim_m3_1 l=2 w=2
X124 GNDA.t26 VDDA.t205 V_p_1.t1 GNDA.t25 sky130_fd_pr__nfet_01v8 ad=1.01 pd=6.15 as=1 ps=5.8 w=2.5 l=5
X125 1st_Vout_1.t25 cap_res1.t7 sky130_fd_pr__cap_mim_m3_1 l=2 w=2
X126 V2.t4 1st_Vout_2.t27 VDDA.t64 VDDA.t63 sky130_fd_pr__pfet_01v8 ad=0.2 pd=1.4 as=0.2 ps=1.4 w=1 l=0.2
X127 VDDA.t145 V2.t26 V_CUR_REF_REG.t4 VDDA.t144 sky130_fd_pr__pfet_01v8 ad=0.2 pd=1.4 as=0.2 ps=1.4 w=1 l=0.15
X128 VDDA.t68 V_TOP.t38 Vin-.t5 VDDA.t67 sky130_fd_pr__pfet_01v8 ad=0.6 pd=3.4 as=0.6 ps=3.4 w=3 l=0.5
X129 V_mir1.t5 V_mir1.t4 VDDA.t36 VDDA.t35 sky130_fd_pr__pfet_01v8 ad=0.2 pd=1.4 as=0.2 ps=1.4 w=1 l=0.2
X130 1st_Vout_1.t26 cap_res1.t6 sky130_fd_pr__cap_mim_m3_1 l=2 w=2
X131 a_36200_n1130.t12 V1.t7 V_p_2.t0 GNDA.t37 sky130_fd_pr__nfet_01v8 ad=1 pd=5.8 as=0.5 ps=2.9 w=2.5 l=0.2
X132 V1.t4 V_TOP.t39 VDDA.t187 VDDA.t186 sky130_fd_pr__pfet_01v8 ad=0.6 pd=3.4 as=0.6 ps=3.4 w=3 l=0.5
X133 a_36200_n1130.t3 a_36200_n1130.t2 VDDA.t42 VDDA.t41 sky130_fd_pr__pfet_01v8 ad=0.2 pd=1.4 as=0.2 ps=1.4 w=1 l=0.2
X134 V2.t3 cap_res2.t0 GNDA.t8 sky130_fd_pr__res_high_po_0p35 l=2.05
X135 a_38370_n6700.t0 GNDA.t5 GNDA.t4 sky130_fd_pr__res_xhigh_po_0p35 l=3.35
X136 1st_Vout_2.t1 a_36200_n1130.t18 VDDA.t81 VDDA.t80 sky130_fd_pr__pfet_01v8 ad=0.2 pd=1.4 as=0.2 ps=1.4 w=1 l=0.2
X137 V_TOP.t40 VDDA.t32 sky130_fd_pr__cap_mim_m3_1 l=2 w=2
X138 1st_Vout_1.t0 Vin+.t6 V_p_1.t2 GNDA.t36 sky130_fd_pr__nfet_01v8 ad=1 pd=5.8 as=0.5 ps=2.9 w=2.5 l=0.2
X139 GNDA.t13 GNDA.t21 sky130_fd_pr__rf_pnp_05v5_W3p40L3p40_25.Emitter.t5 sky130_fd_pr__pnp_05v5_W3p40L3p40
**devattr s=462400,2720
X140 1st_Vout_1.t1 V_mir1.t18 VDDA.t13 VDDA.t12 sky130_fd_pr__pfet_01v8 ad=0.2 pd=1.4 as=0.2 ps=1.4 w=1 l=0.2
X141 GNDA.t13 GNDA.t19 sky130_fd_pr__rf_pnp_05v5_W3p40L3p40_25.Emitter.t4 sky130_fd_pr__pnp_05v5_W3p40L3p40
**devattr s=462400,2720
X142 VDDA.t34 V_TOP.t41 START_UP.t4 VDDA.t33 sky130_fd_pr__pfet_01v8 ad=0.6 pd=3.4 as=0.6 ps=3.4 w=3 l=0.5
X143 V_mir1.t3 V_mir1.t2 VDDA.t95 VDDA.t94 sky130_fd_pr__pfet_01v8 ad=0.2 pd=1.4 as=0.2 ps=1.4 w=1 l=0.2
X144 a_33090_n6320.t0 a_32970_n7928.t1 GNDA.t3 sky130_fd_pr__res_xhigh_po_0p35 l=6
X145 GNDA.t13 GNDA.t18 sky130_fd_pr__rf_pnp_05v5_W3p40L3p40_25.Emitter.t3 sky130_fd_pr__pnp_05v5_W3p40L3p40
**devattr s=462400,2720
X146 V2.t0 1st_Vout_2.t28 VDDA.t23 VDDA.t22 sky130_fd_pr__pfet_01v8 ad=0.2 pd=1.4 as=0.2 ps=1.4 w=1 l=0.2
X147 START_UP.t3 V_TOP.t42 VDDA.t9 VDDA.t8 sky130_fd_pr__pfet_01v8 ad=0.6 pd=3.4 as=0.6 ps=3.4 w=3 l=0.5
X148 V_mir1.t1 V_mir1.t0 VDDA.t97 VDDA.t96 sky130_fd_pr__pfet_01v8 ad=0.2 pd=1.4 as=0.2 ps=1.4 w=1 l=0.2
X149 CURRENT_OUTPUT.t3 V2.t27 VDDA.t143 VDDA.t142 sky130_fd_pr__pfet_01v8 ad=0.2 pd=1.4 as=0.2 ps=1.4 w=1 l=0.15
X150 V_TOP.t43 VDDA.t69 sky130_fd_pr__cap_mim_m3_1 l=2 w=2
X151 1st_Vout_1.t27 cap_res1.t5 sky130_fd_pr__cap_mim_m3_1 l=2 w=2
X152 V_TOP.t5 VDDA.t106 VDDA.t108 VDDA.t107 sky130_fd_pr__pfet_01v8 ad=0.2 pd=1.4 as=0.4 ps=2.8 w=1 l=0.15
X153 V_TOP.t8 1st_Vout_1.t28 VDDA.t185 VDDA.t184 sky130_fd_pr__pfet_01v8 ad=0.2 pd=1.4 as=0.2 ps=1.4 w=1 l=0.2
X154 V_TOP.t44 VDDA.t193 sky130_fd_pr__cap_mim_m3_1 l=2 w=2
X155 VDDA.t55 V_TOP.t45 V1.t3 VDDA.t54 sky130_fd_pr__pfet_01v8 ad=0.6 pd=3.4 as=0.6 ps=3.4 w=3 l=0.5
X156 V_TOP.t46 VDDA.t62 sky130_fd_pr__cap_mim_m3_1 l=2 w=2
X157 1st_Vout_2.t29 cap_res2.t3 sky130_fd_pr__cap_mim_m3_1 l=2 w=2
X158 1st_Vout_2.t30 cap_res2.t2 sky130_fd_pr__cap_mim_m3_1 l=2 w=2
X159 V_CUR_REF_REG.t0 VDDA.t103 VDDA.t105 VDDA.t104 sky130_fd_pr__pfet_01v8 ad=0.2 pd=1.4 as=0.4 ps=2.8 w=1 l=0.15
X160 V_CUR_REF_REG.t3 V2.t28 VDDA.t141 VDDA.t140 sky130_fd_pr__pfet_01v8 ad=0.2 pd=1.4 as=0.2 ps=1.4 w=1 l=0.15
X161 V_TOP.t47 VDDA.t181 sky130_fd_pr__cap_mim_m3_1 l=2 w=2
X162 GNDA.t13 GNDA.t20 Vin-.t3 sky130_fd_pr__pnp_05v5_W3p40L3p40
**devattr s=462400,2720
X163 Vin-.t4 V_TOP.t48 VDDA.t53 VDDA.t52 sky130_fd_pr__pfet_01v8 ad=0.6 pd=3.4 as=0.6 ps=3.4 w=3 l=0.5
X164 1st_Vout_2.t31 cap_res2.t1 sky130_fd_pr__cap_mim_m3_1 l=2 w=2
X165 1st_Vout_1.t29 cap_res1.t4 sky130_fd_pr__cap_mim_m3_1 l=2 w=2
X166 a_37920_n6320.t1 a_38040_n7928.t1 GNDA.t2 sky130_fd_pr__res_xhigh_po_0p35 l=6
X167 GNDA.t15 GNDA.t17 sky130_fd_pr__rf_pnp_05v5_W3p40L3p40_25.Emitter.t2 sky130_fd_pr__pnp_05v5_W3p40L3p40
**devattr s=462400,2720
X168 CURRENT_OUTPUT.t2 V2.t29 VDDA.t139 VDDA.t138 sky130_fd_pr__pfet_01v8 ad=0.2 pd=1.4 as=0.2 ps=1.4 w=1 l=0.15
X169 V2.t1 1st_Vout_2.t32 VDDA.t30 VDDA.t29 sky130_fd_pr__pfet_01v8 ad=0.2 pd=1.4 as=0.2 ps=1.4 w=1 l=0.2
X170 1st_Vout_1.t30 cap_res1.t3 sky130_fd_pr__cap_mim_m3_1 l=2 w=2
X171 V1.t0 a_38490_n7778.t0 GNDA.t4 sky130_fd_pr__res_xhigh_po_0p35 l=3.35
X172 VDDA.t102 VDDA.t100 V_TOP.t4 VDDA.t101 sky130_fd_pr__pfet_01v8 ad=0.45 pd=2.9 as=0.2 ps=1.4 w=1 l=0.15
X173 1st_Vout_1.t31 cap_res1.t2 sky130_fd_pr__cap_mim_m3_1 l=2 w=2
X174 GNDA.t13 GNDA.t22 sky130_fd_pr__rf_pnp_05v5_W3p40L3p40_25.Emitter.t1 sky130_fd_pr__pnp_05v5_W3p40L3p40
**devattr s=462400,2720
X175 VDDA.t189 V_TOP.t49 START_UP.t2 VDDA.t188 sky130_fd_pr__pfet_01v8 ad=0.6 pd=3.4 as=0.6 ps=3.4 w=3 l=0.5
X176 1st_Vout_1.t32 cap_res1.t1 sky130_fd_pr__cap_mim_m3_1 l=2 w=2
X177 a_36200_n1130.t1 a_36200_n1130.t0 VDDA.t47 VDDA.t46 sky130_fd_pr__pfet_01v8 ad=0.2 pd=1.4 as=0.2 ps=1.4 w=1 l=0.2
R0 V2.n0 V2.t24 403.952
R1 V2.n0 V2.t13 403.755
R2 V2.n1 V2.t21 403.755
R3 V2.n2 V2.t11 403.755
R4 V2.n3 V2.t19 403.755
R5 V2.n4 V2.t29 403.755
R6 V2.n5 V2.t15 403.755
R7 V2.n6 V2.t22 403.755
R8 V2.n7 V2.t18 403.755
R9 V2.n8 V2.t27 403.755
R10 V2.n9 V2.t26 403.755
R11 V2.n10 V2.t16 403.755
R12 V2.n11 V2.t23 403.755
R13 V2.n12 V2.t12 403.755
R14 V2.n13 V2.t20 403.755
R15 V2.n14 V2.t10 403.755
R16 V2.n15 V2.t17 403.755
R17 V2.n16 V2.t25 403.755
R18 V2.n17 V2.t14 403.755
R19 V2.n18 V2.t28 403.755
R20 V2.n20 V2.n19 301.933
R21 V2.n22 V2.n21 301.933
R22 V2.n24 V2.n23 301.933
R23 V2.n26 V2.n25 301.933
R24 V2.t3 V2.n27 117.322
R25 V2.n20 V2.t5 104.245
R26 V2.n19 V2.t9 39.4005
R27 V2.n19 V2.t6 39.4005
R28 V2.n21 V2.t8 39.4005
R29 V2.n21 V2.t0 39.4005
R30 V2.n23 V2.t2 39.4005
R31 V2.n23 V2.t1 39.4005
R32 V2.n25 V2.t7 39.4005
R33 V2.n25 V2.t4 39.4005
R34 V2.n27 V2.n18 10.78
R35 V2.n27 V2.n26 5.70362
R36 V2.n9 V2.n8 1.6255
R37 V2.n26 V2.n24 1.1255
R38 V2.n24 V2.n22 1.1255
R39 V2.n22 V2.n20 1.1255
R40 V2.n18 V2.n17 0.196929
R41 V2.n17 V2.n16 0.196929
R42 V2.n16 V2.n15 0.196929
R43 V2.n15 V2.n14 0.196929
R44 V2.n14 V2.n13 0.196929
R45 V2.n13 V2.n12 0.196929
R46 V2.n12 V2.n11 0.196929
R47 V2.n11 V2.n10 0.196929
R48 V2.n10 V2.n9 0.196929
R49 V2.n8 V2.n7 0.196929
R50 V2.n7 V2.n6 0.196929
R51 V2.n6 V2.n5 0.196929
R52 V2.n5 V2.n4 0.196929
R53 V2.n4 V2.n3 0.196929
R54 V2.n3 V2.n2 0.196929
R55 V2.n2 V2.n1 0.196929
R56 V2.n1 V2.n0 0.196929
R57 VDDA.n47 VDDA.t120 708.125
R58 VDDA.t120 VDDA.n13 708.125
R59 VDDA.n29 VDDA.t114 708.125
R60 VDDA.t114 VDDA.n18 708.125
R61 VDDA.n126 VDDA.t108 708.125
R62 VDDA.t108 VDDA.n119 708.125
R63 VDDA.n188 VDDA.t126 708.125
R64 VDDA.t126 VDDA.n139 708.125
R65 VDDA.n191 VDDA.t132 708.125
R66 VDDA.t132 VDDA.n138 708.125
R67 VDDA.n162 VDDA.t129 708.125
R68 VDDA.t129 VDDA.n143 708.125
R69 VDDA.n165 VDDA.t135 708.125
R70 VDDA.t135 VDDA.n142 708.125
R71 VDDA.n123 VDDA.t102 694.444
R72 VDDA.t102 VDDA.n120 694.444
R73 VDDA.t101 VDDA.n124 674.87
R74 VDDA.t125 VDDA.n189 657.76
R75 VDDA.t128 VDDA.n163 657.76
R76 VDDA.t119 VDDA.n48 640.794
R77 VDDA.t113 VDDA.n30 640.794
R78 VDDA.n80 VDDA.n78 587.407
R79 VDDA.n84 VDDA.n81 587.407
R80 VDDA.n110 VDDA.n57 587.407
R81 VDDA.n109 VDDA.n108 587.407
R82 VDDA.n111 VDDA.n110 585
R83 VDDA.n109 VDDA.n102 585
R84 VDDA.n91 VDDA.n80 585
R85 VDDA.n88 VDDA.n81 585
R86 VDDA.n190 VDDA.t131 540.818
R87 VDDA.n164 VDDA.t134 540.818
R88 VDDA.n49 VDDA.t122 523.855
R89 VDDA.n31 VDDA.t104 523.855
R90 VDDA.n125 VDDA.t107 523.855
R91 VDDA.n121 VDDA.t100 422.384
R92 VDDA.n128 VDDA.t106 422.384
R93 VDDA.n45 VDDA.t118 418.368
R94 VDDA.n52 VDDA.t121 418.368
R95 VDDA.n27 VDDA.t112 418.368
R96 VDDA.n34 VDDA.t103 418.368
R97 VDDA.t16 VDDA.t125 407.144
R98 VDDA.t14 VDDA.t16 407.144
R99 VDDA.t90 VDDA.t14 407.144
R100 VDDA.t18 VDDA.t90 407.144
R101 VDDA.t94 VDDA.t18 407.144
R102 VDDA.t98 VDDA.t94 407.144
R103 VDDA.t37 VDDA.t98 407.144
R104 VDDA.t83 VDDA.t37 407.144
R105 VDDA.t12 VDDA.t83 407.144
R106 VDDA.t92 VDDA.t12 407.144
R107 VDDA.t35 VDDA.t92 407.144
R108 VDDA.t136 VDDA.t35 407.144
R109 VDDA.t184 VDDA.t136 407.144
R110 VDDA.t24 VDDA.t184 407.144
R111 VDDA.t20 VDDA.t24 407.144
R112 VDDA.t65 VDDA.t20 407.144
R113 VDDA.t96 VDDA.t65 407.144
R114 VDDA.t27 VDDA.t96 407.144
R115 VDDA.t131 VDDA.t27 407.144
R116 VDDA.t63 VDDA.t128 407.144
R117 VDDA.t200 VDDA.t63 407.144
R118 VDDA.t10 VDDA.t200 407.144
R119 VDDA.t48 VDDA.t10 407.144
R120 VDDA.t80 VDDA.t48 407.144
R121 VDDA.t44 VDDA.t80 407.144
R122 VDDA.t29 VDDA.t44 407.144
R123 VDDA.t194 VDDA.t29 407.144
R124 VDDA.t41 VDDA.t194 407.144
R125 VDDA.t1 VDDA.t41 407.144
R126 VDDA.t58 VDDA.t1 407.144
R127 VDDA.t190 VDDA.t58 407.144
R128 VDDA.t22 VDDA.t190 407.144
R129 VDDA.t56 VDDA.t22 407.144
R130 VDDA.t46 VDDA.t56 407.144
R131 VDDA.t178 VDDA.t46 407.144
R132 VDDA.t182 VDDA.t178 407.144
R133 VDDA.t198 VDDA.t182 407.144
R134 VDDA.t134 VDDA.t198 407.144
R135 VDDA.t142 VDDA.t119 373.214
R136 VDDA.t160 VDDA.t142 373.214
R137 VDDA.t152 VDDA.t160 373.214
R138 VDDA.t166 VDDA.t152 373.214
R139 VDDA.t138 VDDA.t166 373.214
R140 VDDA.t158 VDDA.t138 373.214
R141 VDDA.t174 VDDA.t158 373.214
R142 VDDA.t154 VDDA.t174 373.214
R143 VDDA.t170 VDDA.t154 373.214
R144 VDDA.t148 VDDA.t170 373.214
R145 VDDA.t122 VDDA.t148 373.214
R146 VDDA.t140 VDDA.t113 373.214
R147 VDDA.t168 VDDA.t140 373.214
R148 VDDA.t146 VDDA.t168 373.214
R149 VDDA.t162 VDDA.t146 373.214
R150 VDDA.t176 VDDA.t162 373.214
R151 VDDA.t156 VDDA.t176 373.214
R152 VDDA.t172 VDDA.t156 373.214
R153 VDDA.t150 VDDA.t172 373.214
R154 VDDA.t164 VDDA.t150 373.214
R155 VDDA.t144 VDDA.t164 373.214
R156 VDDA.t104 VDDA.t144 373.214
R157 VDDA.t79 VDDA.t101 373.214
R158 VDDA.t82 VDDA.t79 373.214
R159 VDDA.t107 VDDA.t82 373.214
R160 VDDA.n186 VDDA.t124 370.168
R161 VDDA.n193 VDDA.t130 370.168
R162 VDDA.n160 VDDA.t127 370.168
R163 VDDA.n167 VDDA.t133 370.168
R164 VDDA.n77 VDDA.t109 360.868
R165 VDDA.n116 VDDA.t115 360.868
R166 VDDA.n12 VDDA.t123 351.793
R167 VDDA.n17 VDDA.t105 351.793
R168 VDDA.n10 VDDA.n9 301.933
R169 VDDA.n37 VDDA.n36 301.933
R170 VDDA.n39 VDDA.n38 301.933
R171 VDDA.n41 VDDA.n40 301.933
R172 VDDA.n43 VDDA.n42 301.933
R173 VDDA.n15 VDDA.n14 301.933
R174 VDDA.n20 VDDA.n19 301.933
R175 VDDA.n22 VDDA.n21 301.933
R176 VDDA.n24 VDDA.n23 301.933
R177 VDDA.n26 VDDA.n25 301.933
R178 VDDA.n137 VDDA.n136 299.231
R179 VDDA.n170 VDDA.n169 299.231
R180 VDDA.n172 VDDA.n171 299.231
R181 VDDA.n174 VDDA.n173 299.231
R182 VDDA.n176 VDDA.n175 299.231
R183 VDDA.n178 VDDA.n177 299.231
R184 VDDA.n180 VDDA.n179 299.231
R185 VDDA.n182 VDDA.n181 299.231
R186 VDDA.n184 VDDA.n183 299.231
R187 VDDA.n141 VDDA.n140 299.231
R188 VDDA.n145 VDDA.n144 299.231
R189 VDDA.n147 VDDA.n146 299.231
R190 VDDA.n149 VDDA.n148 299.231
R191 VDDA.n151 VDDA.n150 299.231
R192 VDDA.n153 VDDA.n152 299.231
R193 VDDA.n155 VDDA.n154 299.231
R194 VDDA.n157 VDDA.n156 299.231
R195 VDDA.n159 VDDA.n158 299.231
R196 VDDA.t50 VDDA.t110 251.471
R197 VDDA.t188 VDDA.t50 251.471
R198 VDDA.t8 VDDA.t188 251.471
R199 VDDA.t67 VDDA.t8 251.471
R200 VDDA.t71 VDDA.t67 251.471
R201 VDDA.t5 VDDA.t71 251.471
R202 VDDA.t85 VDDA.t5 251.471
R203 VDDA.t54 VDDA.t85 251.471
R204 VDDA.t186 VDDA.t54 251.471
R205 VDDA.t39 VDDA.t186 251.471
R206 VDDA.t60 VDDA.t39 251.471
R207 VDDA.t73 VDDA.t60 251.471
R208 VDDA.t52 VDDA.t73 251.471
R209 VDDA.t33 VDDA.t52 251.471
R210 VDDA.t77 VDDA.t33 251.471
R211 VDDA.t3 VDDA.t77 251.471
R212 VDDA.t116 VDDA.t3 251.471
R213 VDDA.n50 VDDA.n49 238.367
R214 VDDA.n49 VDDA.n11 238.367
R215 VDDA.n32 VDDA.n31 238.367
R216 VDDA.n31 VDDA.n16 238.367
R217 VDDA.n115 VDDA.n114 238.367
R218 VDDA.n126 VDDA.n125 238.367
R219 VDDA.n125 VDDA.n119 238.367
R220 VDDA.n191 VDDA.n190 238.367
R221 VDDA.n190 VDDA.n138 238.367
R222 VDDA.n165 VDDA.n164 238.367
R223 VDDA.n164 VDDA.n142 238.367
R224 VDDA.t110 VDDA.n96 237.5
R225 VDDA.n113 VDDA.t116 237.5
R226 VDDA.n100 VDDA.n58 185
R227 VDDA.n112 VDDA.n111 185
R228 VDDA.n113 VDDA.n112 185
R229 VDDA.n102 VDDA.n99 185
R230 VDDA.n107 VDDA.n106 185
R231 VDDA.n103 VDDA.n98 185
R232 VDDA.n113 VDDA.n98 185
R233 VDDA.n95 VDDA.n94 185
R234 VDDA.n96 VDDA.n95 185
R235 VDDA.n92 VDDA.n62 185
R236 VDDA.n91 VDDA.n90 185
R237 VDDA.n89 VDDA.n88 185
R238 VDDA.n83 VDDA.n82 185
R239 VDDA.n85 VDDA.n61 185
R240 VDDA.n96 VDDA.n61 185
R241 VDDA.n112 VDDA.n58 150
R242 VDDA.n112 VDDA.n99 150
R243 VDDA.n106 VDDA.n98 150
R244 VDDA.n95 VDDA.n62 150
R245 VDDA.n90 VDDA.n89 150
R246 VDDA.n82 VDDA.n61 150
R247 VDDA.n76 VDDA.n75 141.712
R248 VDDA.n74 VDDA.n73 141.712
R249 VDDA.n72 VDDA.n71 141.712
R250 VDDA.n70 VDDA.n69 141.712
R251 VDDA.n68 VDDA.n67 141.712
R252 VDDA.n66 VDDA.n65 141.712
R253 VDDA.n64 VDDA.n63 141.712
R254 VDDA.n55 VDDA.n54 141.712
R255 VDDA.t111 VDDA.n80 123.126
R256 VDDA.n81 VDDA.t111 123.126
R257 VDDA.n110 VDDA.t117 123.126
R258 VDDA.t117 VDDA.n109 123.126
R259 VDDA.n114 VDDA.n113 65.8183
R260 VDDA.n113 VDDA.n97 65.8183
R261 VDDA.n96 VDDA.n59 65.8183
R262 VDDA.n96 VDDA.n60 65.8183
R263 VDDA.n201 VDDA.t203 58.8003
R264 VDDA.n202 VDDA.t204 58.8003
R265 VDDA.n99 VDDA.n97 53.3664
R266 VDDA.n114 VDDA.n58 53.3664
R267 VDDA.n106 VDDA.n97 53.3664
R268 VDDA.n62 VDDA.n59 53.3664
R269 VDDA.n89 VDDA.n60 53.3664
R270 VDDA.n90 VDDA.n59 53.3664
R271 VDDA.n82 VDDA.n60 53.3664
R272 VDDA.n201 VDDA.t202 49.164
R273 VDDA.n203 VDDA.t205 48.516
R274 VDDA.n9 VDDA.t171 39.4005
R275 VDDA.n9 VDDA.t149 39.4005
R276 VDDA.n36 VDDA.t175 39.4005
R277 VDDA.n36 VDDA.t155 39.4005
R278 VDDA.n38 VDDA.t139 39.4005
R279 VDDA.n38 VDDA.t159 39.4005
R280 VDDA.n40 VDDA.t153 39.4005
R281 VDDA.n40 VDDA.t167 39.4005
R282 VDDA.n42 VDDA.t143 39.4005
R283 VDDA.n42 VDDA.t161 39.4005
R284 VDDA.n14 VDDA.t165 39.4005
R285 VDDA.n14 VDDA.t145 39.4005
R286 VDDA.n19 VDDA.t173 39.4005
R287 VDDA.n19 VDDA.t151 39.4005
R288 VDDA.n21 VDDA.t177 39.4005
R289 VDDA.n21 VDDA.t157 39.4005
R290 VDDA.n23 VDDA.t147 39.4005
R291 VDDA.n23 VDDA.t163 39.4005
R292 VDDA.n25 VDDA.t141 39.4005
R293 VDDA.n25 VDDA.t169 39.4005
R294 VDDA.n136 VDDA.t97 39.4005
R295 VDDA.n136 VDDA.t28 39.4005
R296 VDDA.n169 VDDA.t21 39.4005
R297 VDDA.n169 VDDA.t66 39.4005
R298 VDDA.n171 VDDA.t185 39.4005
R299 VDDA.n171 VDDA.t25 39.4005
R300 VDDA.n173 VDDA.t36 39.4005
R301 VDDA.n173 VDDA.t137 39.4005
R302 VDDA.n175 VDDA.t13 39.4005
R303 VDDA.n175 VDDA.t93 39.4005
R304 VDDA.n177 VDDA.t38 39.4005
R305 VDDA.n177 VDDA.t84 39.4005
R306 VDDA.n179 VDDA.t95 39.4005
R307 VDDA.n179 VDDA.t99 39.4005
R308 VDDA.n181 VDDA.t91 39.4005
R309 VDDA.n181 VDDA.t19 39.4005
R310 VDDA.n183 VDDA.t17 39.4005
R311 VDDA.n183 VDDA.t15 39.4005
R312 VDDA.n140 VDDA.t183 39.4005
R313 VDDA.n140 VDDA.t199 39.4005
R314 VDDA.n144 VDDA.t47 39.4005
R315 VDDA.n144 VDDA.t179 39.4005
R316 VDDA.n146 VDDA.t23 39.4005
R317 VDDA.n146 VDDA.t57 39.4005
R318 VDDA.n148 VDDA.t59 39.4005
R319 VDDA.n148 VDDA.t191 39.4005
R320 VDDA.n150 VDDA.t42 39.4005
R321 VDDA.n150 VDDA.t2 39.4005
R322 VDDA.n152 VDDA.t30 39.4005
R323 VDDA.n152 VDDA.t195 39.4005
R324 VDDA.n154 VDDA.t81 39.4005
R325 VDDA.n154 VDDA.t45 39.4005
R326 VDDA.n156 VDDA.t11 39.4005
R327 VDDA.n156 VDDA.t49 39.4005
R328 VDDA.n158 VDDA.t64 39.4005
R329 VDDA.n158 VDDA.t201 39.4005
R330 VDDA.n116 VDDA.n115 22.8576
R331 VDDA.n94 VDDA.n77 22.8576
R332 VDDA.n54 VDDA.t78 13.1338
R333 VDDA.n54 VDDA.t4 13.1338
R334 VDDA.n63 VDDA.t53 13.1338
R335 VDDA.n63 VDDA.t34 13.1338
R336 VDDA.n65 VDDA.t61 13.1338
R337 VDDA.n65 VDDA.t74 13.1338
R338 VDDA.n67 VDDA.t187 13.1338
R339 VDDA.n67 VDDA.t40 13.1338
R340 VDDA.n69 VDDA.t86 13.1338
R341 VDDA.n69 VDDA.t55 13.1338
R342 VDDA.n71 VDDA.t72 13.1338
R343 VDDA.n71 VDDA.t6 13.1338
R344 VDDA.n73 VDDA.t9 13.1338
R345 VDDA.n73 VDDA.t68 13.1338
R346 VDDA.n75 VDDA.t51 13.1338
R347 VDDA.n75 VDDA.t189 13.1338
R348 VDDA VDDA.t7 12.8011
R349 VDDA.n77 VDDA.n76 11.0571
R350 VDDA.n117 VDDA.n116 10.869
R351 VDDA.n94 VDDA.n93 9.50883
R352 VDDA.n86 VDDA.n85 9.50883
R353 VDDA.n115 VDDA.n56 9.50883
R354 VDDA.n105 VDDA.n103 9.50883
R355 VDDA.n122 VDDA.n120 9.50883
R356 VDDA.n187 VDDA.n139 9.50883
R357 VDDA.n161 VDDA.n143 9.50883
R358 VDDA.n100 VDDA.n56 9.3005
R359 VDDA.n111 VDDA.n101 9.3005
R360 VDDA.n104 VDDA.n102 9.3005
R361 VDDA.n107 VDDA.n105 9.3005
R362 VDDA.n93 VDDA.n92 9.3005
R363 VDDA.n91 VDDA.n79 9.3005
R364 VDDA.n88 VDDA.n87 9.3005
R365 VDDA.n86 VDDA.n83 9.3005
R366 VDDA.n123 VDDA.n122 9.3005
R367 VDDA.n188 VDDA.n187 9.3005
R368 VDDA.n162 VDDA.n161 9.3005
R369 VDDA.n111 VDDA.n100 9.14336
R370 VDDA.n111 VDDA.n102 9.14336
R371 VDDA.n107 VDDA.n102 9.14336
R372 VDDA.n92 VDDA.n91 9.14336
R373 VDDA.n91 VDDA.n88 9.14336
R374 VDDA.n88 VDDA.n83 9.14336
R375 VDDA.n132 VDDA.n53 5.58881
R376 VDDA.n115 VDDA.n57 5.33286
R377 VDDA.n108 VDDA.n103 5.33286
R378 VDDA.n94 VDDA.n78 5.33286
R379 VDDA.n85 VDDA.n84 5.33286
R380 VDDA.n27 VDDA.n26 4.84425
R381 VDDA.n51 VDDA.n11 4.73979
R382 VDDA.n46 VDDA.n13 4.73979
R383 VDDA.n33 VDDA.n16 4.73979
R384 VDDA.n28 VDDA.n18 4.73979
R385 VDDA.n51 VDDA.n50 4.6505
R386 VDDA.n47 VDDA.n46 4.6505
R387 VDDA.n33 VDDA.n32 4.6505
R388 VDDA.n29 VDDA.n28 4.6505
R389 VDDA.n12 VDDA.n11 4.54311
R390 VDDA.n50 VDDA.n12 4.54311
R391 VDDA.n17 VDDA.n16 4.54311
R392 VDDA.n32 VDDA.n17 4.54311
R393 VDDA.n35 VDDA.n34 4.5005
R394 VDDA.n45 VDDA.n44 4.5005
R395 VDDA.n53 VDDA.n52 4.5005
R396 VDDA.n48 VDDA.n13 4.48641
R397 VDDA.n48 VDDA.n47 4.48641
R398 VDDA.n30 VDDA.n18 4.48641
R399 VDDA.n30 VDDA.n29 4.48641
R400 VDDA.n189 VDDA.n139 4.48641
R401 VDDA.n189 VDDA.n188 4.48641
R402 VDDA.n163 VDDA.n143 4.48641
R403 VDDA.n163 VDDA.n162 4.48641
R404 VDDA.n124 VDDA.n120 4.19264
R405 VDDA.n124 VDDA.n123 4.19264
R406 VDDA.n100 VDDA.n57 3.75335
R407 VDDA.n108 VDDA.n107 3.75335
R408 VDDA.n92 VDDA.n78 3.75335
R409 VDDA.n84 VDDA.n83 3.75335
R410 VDDA.n193 VDDA.n192 3.41464
R411 VDDA.n167 VDDA.n166 3.41464
R412 VDDA.n2 VDDA.n1 3.4105
R413 VDDA.n5 VDDA.n4 3.4105
R414 VDDA.n8 VDDA.n7 3.4105
R415 VDDA.n128 VDDA.n127 3.39381
R416 VDDA.n127 VDDA.n119 3.11118
R417 VDDA.n192 VDDA.n138 3.11118
R418 VDDA.n166 VDDA.n142 3.11118
R419 VDDA.n127 VDDA.n126 3.04304
R420 VDDA.n192 VDDA.n191 3.04304
R421 VDDA.n166 VDDA.n165 3.04304
R422 VDDA.n129 VDDA.n128 1.94319
R423 VDDA.n121 VDDA.n118 1.94319
R424 VDDA.n160 VDDA.n159 1.90152
R425 VDDA.n194 VDDA.n193 1.77652
R426 VDDA.n186 VDDA.n185 1.77652
R427 VDDA.n168 VDDA.n167 1.77652
R428 VDDA.n134 VDDA.n133 1.72394
R429 VDDA.n199 VDDA.n198 1.72394
R430 VDDA.n208 VDDA.n207 1.72394
R431 VDDA.n204 VDDA.n0 1.70194
R432 VDDA.n195 VDDA.n3 1.70194
R433 VDDA.n130 VDDA.n6 1.70194