* PEX produced on Mon Aug 25 08:08:52 AM CEST 2025 using /foss/tools/osic-multitool/iic-pex.sh with m=3 and s=1
* NGSPICE file created from full_pll_magic_2.ext - technology: sky130A

.subckt full_pll_magic_2 V_OSC VDDA GNDA F_REF I_IN
X0 GNDA.t168 a_6200_5250.t4 a_6200_5250.t5 GNDA.t167 sky130_fd_pr__nfet_01v8 ad=0.125 pd=1 as=0.125 ps=1 w=0.5 l=0.15
X1 a_5970_4630.t7 V_CONT.t8 a_6200_5250.t0 VDDA.t154 sky130_fd_pr__pfet_01v8 ad=0.25 pd=1.5 as=0.25 ps=1.5 w=1 l=0.15
X2 GNDA.t210 GNDA.t208 GNDA.t210 GNDA.t209 sky130_fd_pr__nfet_01v8 ad=0.5 pd=2.5 as=0 ps=0 w=2 l=0.6
X3 a_7630_n1440.t0 VCO_FD_magic_0.div120_2_0.div2.t2 GNDA.t265 GNDA.t264 sky130_fd_pr__nfet_01v8 ad=0.2 pd=1.8 as=0.1 ps=0.9 w=0.5 l=0.15
X4 a_870_1400.t1 pfd_8_0.QA_b.t3 VDDA.t214 VDDA.t133 sky130_fd_pr__pfet_01v8 ad=0.4 pd=2.4 as=0.8 ps=4.8 w=2 l=0.15
X5 pfd_8_0.DOWN_b.t1 VDDA.t221 pfd_8_0.DOWN_PFD_b.t2 GNDA.t117 sky130_fd_pr__nfet_01v8 ad=0.5 pd=3 as=0.5 ps=3 w=1 l=0.15
X6 GNDA.t241 VCO_FD_magic_0.div120_2_0.div5_2_0.J.t4 VCO_FD_magic_0.div120_2_0.div5_2_0.Q2_b.t1 GNDA.t240 sky130_fd_pr__nfet_01v8 ad=0.1 pd=0.9 as=0.2 ps=1.8 w=0.5 l=0.15
X7 VCO_FD_magic_0.div120_2_0.div5_2_0.J.t0 VCO_FD_magic_0.div120_2_0.div24.t3 GNDA.t108 GNDA.t107 sky130_fd_pr__nfet_01v8 ad=0.2 pd=1.8 as=0.1 ps=0.9 w=0.5 l=0.15
X8 GNDA.t85 VCO_FD_magic_0.div120_2_0.div3_3_0.H.t4 VCO_FD_magic_0.div120_2_0.div3_3_0.I.t1 GNDA.t84 sky130_fd_pr__nfet_01v8 ad=0.1 pd=0.9 as=0.2 ps=1.8 w=0.5 l=0.15
X9 pfd_8_0.DOWN.t1 pfd_8_0.DOWN_b.t2 VDDA.t193 VDDA.t192 sky130_fd_pr__pfet_01v8 ad=1 pd=5 as=1 ps=5 w=2 l=0.15
X10 pfd_8_0.UP_input.t3 pfd_8_0.UP_b.t1 sky130_fd_pr__cap_mim_m3_1 l=6.3 w=5.2
X11 VDDA.t100 VCO_FD_magic_0.vco2_3_0.V1.t3 VCO_FD_magic_0.vco2_3_0.V4.t0 VDDA.t99 sky130_fd_pr__pfet_01v8 ad=0.8 pd=4.8 as=0.8 ps=4.8 w=2 l=1.5
X12 VCO_FD_magic_0.div120_2_0.div5_2_0.J.t2 VCO_FD_magic_0.div120_2_0.div5_2_0.G.t3 VDDA.t121 VDDA.t120 sky130_fd_pr__pfet_01v8 ad=0.2 pd=1.8 as=0.1 ps=0.9 w=0.5 l=0.15
X13 VDDA.t92 pfd_8_0.opamp_out.t10 opamp_cell_4_0.VIN+.t3 VDDA.t91 sky130_fd_pr__pfet_01v8 ad=0.5 pd=2.5 as=0.5 ps=2.5 w=2 l=0.6
X14 opamp_cell_4_0.n_right.t2 opamp_cell_4_0.VIN+.t6 a_6320_5840.t3 GNDA.t39 sky130_fd_pr__nfet_01v8 ad=0.125 pd=1 as=0.125 ps=1 w=0.5 l=0.15
X15 opamp_cell_4_0.n_right.t0 opamp_cell_4_0.n_left.t6 VDDA.t51 VDDA.t50 sky130_fd_pr__pfet_01v8 ad=0.25 pd=1.5 as=0.25 ps=1.5 w=1 l=0.15
X16 pfd_8_0.opamp_out.t5 opamp_cell_4_0.n_right.t5 VDDA.t123 VDDA.t122 sky130_fd_pr__pfet_01v8 ad=0.25 pd=1.5 as=0.25 ps=1.5 w=1 l=0.15
X17 GNDA.t56 VCO_FD_magic_0.div120_2_0.div2_4_0.C.t4 VCO_FD_magic_0.div120_2_0.div8.t0 GNDA.t55 sky130_fd_pr__nfet_01v8 ad=0.1 pd=0.9 as=0.2 ps=1.8 w=0.5 l=0.15
X18 pfd_8_0.opamp_out.t9 a_6490_4630.t5 GNDA.t158 GNDA.t157 sky130_fd_pr__nfet_01v8 ad=0.125 pd=1 as=0.125 ps=1 w=0.5 l=0.15
X19 a_2350_1400.t0 pfd_8_0.before_Reset.t3 GNDA.t239 GNDA.t238 sky130_fd_pr__nfet_01v8 ad=0.4 pd=2.8 as=0.4 ps=2.8 w=1 l=0.15
X20 VDDA.t152 GNDA.t270 VCO_FD_magic_0.vco2_3_0.V4.t2 VDDA.t135 sky130_fd_pr__pfet_01v8 ad=0.4 pd=2.8 as=0.4 ps=2.8 w=1 l=0.15
X21 pfd_8_0.DOWN.t0 pfd_8_0.DOWN_b.t3 GNDA.t43 GNDA.t42 sky130_fd_pr__nfet_01v8 ad=0.5 pd=3 as=0.5 ps=3 w=1 l=0.15
X22 VCO_FD_magic_0.div120_2_0.div2_4_2.B.t0 a_7630_n1440.t3 VCO_FD_magic_0.div120_2_0.div2_4_2.A.t0 GNDA.t83 sky130_fd_pr__nfet_01v8 ad=0.1 pd=0.9 as=0.2 ps=1.8 w=0.5 l=0.15
X23 VDDA.t141 opamp_cell_4_0.p_bias.t6 opamp_cell_4_0.p_bias.t7 VDDA.t140 sky130_fd_pr__pfet_01v8 ad=0.625 pd=3 as=0.625 ps=3 w=2.5 l=0.5
X24 a_n30_1400.t0 F_REF.t0 VDDA.t132 VDDA.t110 sky130_fd_pr__pfet_01v8 ad=0.4 pd=2.4 as=0.8 ps=4.8 w=2 l=0.15
X25 GNDA.t137 I_IN.t2 I_IN.t3 GNDA.t136 sky130_fd_pr__nfet_01v8 ad=0.5 pd=2.5 as=0.5 ps=2.5 w=2 l=0.6
X26 VDDA.t66 VCO_FD_magic_0.div120_2_0.div4.t2 a_6330_n1440.t2 VDDA.t65 sky130_fd_pr__pfet_01v8 ad=0.1 pd=0.9 as=0.2 ps=1.8 w=0.5 l=0.15
X27 GNDA.t246 pfd_8_0.QA.t3 pfd_8_0.QA_b.t2 GNDA.t245 sky130_fd_pr__nfet_01v8 ad=0.4 pd=2.8 as=0.2 ps=1.4 w=1 l=0.15
X28 a_6200_5250.t3 a_6200_5250.t2 GNDA.t166 GNDA.t165 sky130_fd_pr__nfet_01v8 ad=0.125 pd=1 as=0.125 ps=1 w=0.5 l=0.15
X29 a_6200_5250.t1 V_CONT.t9 a_5970_4630.t6 VDDA.t153 sky130_fd_pr__pfet_01v8 ad=0.25 pd=1.5 as=0.25 ps=1.5 w=1 l=0.15
X30 VDDA.t139 opamp_cell_4_0.p_bias.t9 a_5970_4630.t5 VDDA.t138 sky130_fd_pr__pfet_01v8 ad=0.625 pd=3 as=0.625 ps=3 w=2.5 l=0.5
X31 VDDA.t191 VDDA.t188 VDDA.t190 VDDA.t189 sky130_fd_pr__pfet_01v8 ad=1 pd=5 as=0 ps=0 w=2 l=0.6
X32 VCO_FD_magic_0.div120_2_0.div2_4_1.C.t3 a_8930_n1440.t3 GNDA.t248 GNDA.t247 sky130_fd_pr__nfet_01v8 ad=0.2 pd=1.8 as=0.1 ps=0.9 w=0.5 l=0.15
X33 VDDA.t187 VDDA.t185 VDDA.t187 VDDA.t186 sky130_fd_pr__pfet_01v8 ad=0.5 pd=2.5 as=0 ps=0 w=2 l=0.6
X34 pfd_8_0.DOWN_input.t1 pfd_8_0.DOWN_b.t4 I_IN.t5 VDDA.t107 sky130_fd_pr__pfet_01v8 ad=1 pd=5 as=1 ps=5 w=2 l=0.15
X35 VDDA.t195 VCO_FD_magic_0.div120_2_0.div3_3_0.CLK.t3 VCO_FD_magic_0.div120_2_0.div3_3_0.D.t0 VDDA.t194 sky130_fd_pr__pfet_01v8 ad=0.2 pd=1.8 as=0.2 ps=1.8 w=0.5 l=0.15
X36 VCO_FD_magic_0.div120_2_0.div3_3_0.CLK.t0 VCO_FD_magic_0.div120_2_0.div8.t2 GNDA.t153 GNDA.t152 sky130_fd_pr__nfet_01v8 ad=0.2 pd=1.8 as=0.1 ps=0.9 w=0.5 l=0.15
X37 VCO_FD_magic_0.div120_2_0.div3_3_0.C.t2 VCO_FD_magic_0.div120_2_0.div3_3_0.CLK.t4 GNDA.t212 GNDA.t211 sky130_fd_pr__nfet_01v8 ad=0.1 pd=0.9 as=0.1 ps=0.9 w=0.5 l=0.15
X38 a_1910_2020.t1 pfd_8_0.QB.t3 GNDA.t48 GNDA.t47 sky130_fd_pr__nfet_01v8 ad=0.2 pd=1.4 as=0.4 ps=2.8 w=1 l=0.15
X39 VDDA.t204 pfd_8_0.UP_input.t4 V_CONT.t7 VDDA.t203 sky130_fd_pr__pfet_01v8 ad=0.5 pd=2.5 as=0.5 ps=2.5 w=2 l=0.6
X40 a_6220_5810.t7 a_6220_5810.t6 GNDA.t251 GNDA.t250 sky130_fd_pr__nfet_01v8 ad=0.3125 pd=1.75 as=0.3125 ps=1.75 w=1.25 l=0.5
X41 GNDA.t20 a_7630_n1440.t4 VCO_FD_magic_0.div120_2_0.div2_4_2.C.t2 GNDA.t19 sky130_fd_pr__nfet_01v8 ad=0.1 pd=0.9 as=0.1 ps=0.9 w=0.5 l=0.15
X42 pfd_8_0.UP.t1 pfd_8_0.UP_PFD_b.t2 VDDA.t105 VDDA.t104 sky130_fd_pr__pfet_01v8 ad=1 pd=5 as=1 ps=5 w=2 l=0.15
X43 VCO_FD_magic_0.div120_2_0.div3_3_0.CLK.t2 VCO_FD_magic_0.div120_2_0.div8.t3 VDDA.t96 VDDA.t95 sky130_fd_pr__pfet_01v8 ad=0.2 pd=1.8 as=0.1 ps=0.9 w=0.5 l=0.15
X44 GNDA.t223 F_VCO.t2 VCO_FD_magic_0.div120_2_0.div5_2_0.I.t1 GNDA.t222 sky130_fd_pr__nfet_01v8 ad=0.1 pd=0.9 as=0.2 ps=1.8 w=0.5 l=0.15
X45 VCO_FD_magic_0.div120_2_0.div5_2_0.G.t2 VCO_FD_magic_0.div120_2_0.div24.t4 VCO_FD_magic_0.div120_2_0.div5_2_0.H.t1 GNDA.t2 sky130_fd_pr__nfet_01v8 ad=0.2 pd=1.8 as=0.1 ps=0.9 w=0.5 l=0.15
X46 a_8930_n1440.t0 V_OSC.t2 VDDA.t3 VDDA.t2 sky130_fd_pr__pfet_01v8 ad=0.2 pd=1.8 as=0.1 ps=0.9 w=0.5 l=0.15
X47 VDDA.t82 VCO_FD_magic_0.div120_2_0.div5_2_0.Q2_b.t2 F_VCO.t1 VDDA.t81 sky130_fd_pr__pfet_01v8 ad=0.2 pd=1.8 as=0.2 ps=1.8 w=0.5 l=0.15
X48 a_8930_n1440.t2 V_OSC.t3 GNDA.t141 GNDA.t140 sky130_fd_pr__nfet_01v8 ad=0.2 pd=1.8 as=0.1 ps=0.9 w=0.5 l=0.15
X49 GNDA.t74 VCO_FD_magic_0.div120_2_0.div5_2_0.A.t3 VCO_FD_magic_0.div120_2_0.div5_2_0.C.t1 GNDA.t73 sky130_fd_pr__nfet_01v8 ad=0.2 pd=1.8 as=0.1 ps=0.9 w=0.5 l=0.15
X50 a_6320_5840.t9 a_6220_5810.t9 GNDA.t89 GNDA.t88 sky130_fd_pr__nfet_01v8 ad=0.3125 pd=1.75 as=0.3125 ps=1.75 w=1.25 l=0.5
X51 pfd_8_0.QA.t2 pfd_8_0.QA_b.t4 GNDA.t235 GNDA.t234 sky130_fd_pr__nfet_01v8 ad=0.2 pd=1.4 as=0.4 ps=2.8 w=1 l=0.15
X52 pfd_8_0.UP_input.t1 pfd_8_0.UP.t2 pfd_8_0.opamp_out.t4 GNDA.t78 sky130_fd_pr__nfet_01v8 ad=0.5 pd=3 as=0.5 ps=3 w=1 l=0.15
X53 VDDA.t117 VCO_FD_magic_0.div120_2_0.div5_2_0.Q2_b.t3 VCO_FD_magic_0.div120_2_0.div5_2_0.A.t2 VDDA.t116 sky130_fd_pr__pfet_01v8 ad=0.1 pd=0.9 as=0.2 ps=1.8 w=0.5 l=0.15
X54 a_5970_4630.t3 opamp_cell_4_0.p_bias.t10 VDDA.t72 VDDA.t71 sky130_fd_pr__pfet_01v8 ad=0.625 pd=3 as=0.625 ps=3 w=2.5 l=0.5
X55 a_1390_1400.t1 pfd_8_0.E.t3 pfd_8_0.E_b.t1 VDDA.t35 sky130_fd_pr__pfet_01v8 ad=0.4 pd=2.4 as=0.8 ps=4.8 w=2 l=0.15
X56 pfd_8_0.DOWN_input.t0 pfd_8_0.DOWN.t3 I_IN.t4 GNDA.t68 sky130_fd_pr__nfet_01v8 ad=0.5 pd=3 as=0.5 ps=3 w=1 l=0.15
X57 a_870_640.t1 pfd_8_0.QB_b.t3 VDDA.t134 VDDA.t133 sky130_fd_pr__pfet_01v8 ad=0.4 pd=2.4 as=0.8 ps=4.8 w=2 l=0.15
X58 I_IN.t1 I_IN.t0 GNDA.t127 GNDA.t126 sky130_fd_pr__nfet_01v8 ad=0.5 pd=2.5 as=0.5 ps=2.5 w=2 l=0.6
X59 VCO_FD_magic_0.div120_2_0.div5_2_0.F.t1 F_VCO.t3 VCO_FD_magic_0.div120_2_0.div5_2_0.G.t0 VDDA.t8 sky130_fd_pr__pfet_01v8 ad=0.1 pd=0.9 as=0.2 ps=1.8 w=0.5 l=0.15
X60 VDDA.t184 VDDA.t181 VDDA.t183 VDDA.t182 sky130_fd_pr__pfet_01v8 ad=0.5 pd=3 as=0 ps=0 w=1 l=0.15
X61 VDDA.t84 a_2530_190.t2 a_2200_190.t1 VDDA.t83 sky130_fd_pr__pfet_01v8 ad=0.8 pd=4.8 as=0.8 ps=4.8 w=2 l=0.15
X62 V_CONT.t1 loop_filter_2_0.R1_C1.t0 GNDA.t67 sky130_fd_pr__res_xhigh_po_0p35 l=7.52
X63 pfd_8_0.opamp_out.t11 a_9360_3514.t0 sky130_fd_pr__cap_mim_m3_1 l=10 w=10
X64 VCO_FD_magic_0.div120_2_0.div5_2_0.B.t1 VCO_FD_magic_0.div120_2_0.div5_2_0.A.t4 VDDA.t202 VDDA.t201 sky130_fd_pr__pfet_01v8 ad=0.2 pd=1.8 as=0.1 ps=0.9 w=0.5 l=0.15
X65 GNDA.t207 GNDA.t205 GNDA.t207 GNDA.t206 sky130_fd_pr__nfet_01v8 ad=0.3125 pd=1.75 as=0 ps=0 w=1.25 l=0.5
X66 GNDA.t204 GNDA.t201 GNDA.t203 GNDA.t202 sky130_fd_pr__nfet_01v8 ad=0.25 pd=2 as=0 ps=0 w=0.5 l=0.15
X67 opamp_cell_4_0.p_bias.t5 opamp_cell_4_0.p_bias.t4 VDDA.t109 VDDA.t108 sky130_fd_pr__pfet_01v8 ad=0.625 pd=3 as=0.625 ps=3 w=2.5 l=0.5
X68 VCO_FD_magic_0.vco2_3_0.V1.t2 V_CONT.t10 GNDA.t41 GNDA.t40 sky130_fd_pr__nfet_01v8 ad=0.4 pd=2.8 as=0.4 ps=2.8 w=1 l=0.15
X69 VCO_FD_magic_0.vco2_3_0.V8.t1 VCO_FD_magic_0.vco2_3_0.V9.t2 VCO_FD_magic_0.vco2_3_0.V4.t1 VDDA.t135 sky130_fd_pr__pfet_01v8 ad=0.4 pd=2.8 as=0.4 ps=2.8 w=1 l=0.15
X70 V_CONT.t2 pfd_8_0.UP_input.t5 VDDA.t78 VDDA.t77 sky130_fd_pr__pfet_01v8 ad=0.5 pd=2.5 as=0.5 ps=2.5 w=2 l=0.6
X71 VDDA.t180 VDDA.t178 VDDA.t180 VDDA.t179 sky130_fd_pr__pfet_01v8 ad=0.5 pd=2.5 as=0 ps=0 w=2 l=0.6
X72 V_OSC.t0 VCO_FD_magic_0.vco2_3_0.V8.t2 VCO_FD_magic_0.vco2_3_0.V3.t0 GNDA.t59 sky130_fd_pr__nfet_01v8 ad=0.2 pd=1.8 as=0.2 ps=1.8 w=0.5 l=0.15
X73 GNDA.t200 GNDA.t197 GNDA.t199 GNDA.t198 sky130_fd_pr__nfet_01v8 ad=1 pd=5 as=0 ps=0 w=2 l=0.6
X74 pfd_8_0.F.t1 pfd_8_0.QB_b.t4 GNDA.t4 GNDA.t3 sky130_fd_pr__nfet_01v8 ad=0.2 pd=1.4 as=0.4 ps=2.8 w=1 l=0.15
X75 GNDA.t82 a_2530_190.t3 a_2200_190.t0 GNDA.t81 sky130_fd_pr__nfet_01v8 ad=0.4 pd=2.8 as=0.4 ps=2.8 w=1 l=0.15
X76 pfd_8_0.DOWN_input.t2 pfd_8_0.DOWN_b.t5 GNDA.t1 GNDA.t0 sky130_fd_pr__nfet_01v8 ad=0.5 pd=3 as=0.5 ps=3 w=1 l=0.15
X77 GNDA.t145 VCO_FD_magic_0.div120_2_0.div24.t5 VCO_FD_magic_0.div120_2_0.div5_2_0.D.t2 GNDA.t144 sky130_fd_pr__nfet_01v8 ad=0.1 pd=0.9 as=0.1 ps=0.9 w=0.5 l=0.15
X78 GNDA.t50 VCO_FD_magic_0.div120_2_0.div2_4_2.C.t4 VCO_FD_magic_0.div120_2_0.div4.t1 GNDA.t49 sky130_fd_pr__nfet_01v8 ad=0.1 pd=0.9 as=0.2 ps=1.8 w=0.5 l=0.15
X79 GNDA.t196 GNDA.t193 GNDA.t195 GNDA.t194 sky130_fd_pr__nfet_01v8 ad=0.625 pd=3.5 as=0 ps=0 w=1.25 l=0.5
X80 VDDA.t211 a_8930_n1440.t4 VCO_FD_magic_0.div120_2_0.div2.t1 VDDA.t210 sky130_fd_pr__pfet_01v8 ad=0.2 pd=1.8 as=0.2 ps=1.8 w=0.5 l=0.15
X81 VCO_FD_magic_0.div120_2_0.div2_4_1.B.t0 a_8930_n1440.t5 VCO_FD_magic_0.div120_2_0.div2_4_1.A.t0 GNDA.t213 sky130_fd_pr__nfet_01v8 ad=0.1 pd=0.9 as=0.2 ps=1.8 w=0.5 l=0.15
X82 VCO_FD_magic_0.div120_2_0.div3_3_0.G.t0 VCO_FD_magic_0.div120_2_0.div3_3_0.I.t2 GNDA.t139 GNDA.t138 sky130_fd_pr__nfet_01v8 ad=0.1 pd=0.9 as=0.2 ps=1.8 w=0.5 l=0.15
X83 GNDA.t225 pfd_8_0.E_b.t3 pfd_8_0.E.t2 GNDA.t224 sky130_fd_pr__nfet_01v8 ad=0.4 pd=2.8 as=0.2 ps=1.4 w=1 l=0.15
X84 pfd_8_0.UP_b.t0 pfd_8_0.UP.t3 GNDA.t91 GNDA.t90 sky130_fd_pr__nfet_01v8 ad=0.5 pd=3 as=0.5 ps=3 w=1 l=0.15
X85 GNDA.t118 VDDA.t222 VCO_FD_magic_0.vco2_3_0.V3.t2 GNDA.t59 sky130_fd_pr__nfet_01v8 ad=0.2 pd=1.8 as=0.2 ps=1.8 w=0.5 l=0.15
X86 GNDA.t215 VCO_FD_magic_0.div120_2_0.div5_2_0.Q2_b.t4 VCO_FD_magic_0.div120_2_0.div5_2_0.M.t3 GNDA.t214 sky130_fd_pr__nfet_01v8 ad=0.1 pd=0.9 as=0.1 ps=0.9 w=0.5 l=0.15
X87 pfd_8_0.opamp_out.t12 a_9360_6440.t0 sky130_fd_pr__cap_mim_m3_1 l=10 w=10
X88 VCO_FD_magic_0.div120_2_0.div2_4_0.A.t0 VCO_FD_magic_0.div120_2_0.div8.t4 VDDA.t39 VDDA.t38 sky130_fd_pr__pfet_01v8 ad=0.2 pd=1.8 as=0.1 ps=0.9 w=0.5 l=0.15
X89 GNDA.t219 a_6220_5810.t10 a_6320_5840.t12 GNDA.t218 sky130_fd_pr__nfet_01v8 ad=0.3125 pd=1.75 as=0.3125 ps=1.75 w=1.25 l=0.5
X90 a_1390_640.t1 pfd_8_0.F.t3 pfd_8_0.F_b.t1 VDDA.t35 sky130_fd_pr__pfet_01v8 ad=0.4 pd=2.4 as=0.8 ps=4.8 w=2 l=0.15
X91 GNDA.t192 GNDA.t189 GNDA.t191 GNDA.t190 sky130_fd_pr__nfet_01v8 ad=1 pd=5 as=0 ps=0 w=2 l=0.6
X92 GNDA.t29 F_VCO.t4 VCO_FD_magic_0.div120_2_0.div5_2_0.L.t1 GNDA.t28 sky130_fd_pr__nfet_01v8 ad=0.2 pd=1.8 as=0.1 ps=0.9 w=0.5 l=0.15
X93 VDDA.t147 VCO_FD_magic_0.div120_2_0.div3_3_0.I.t3 VCO_FD_magic_0.div120_2_0.div3_3_0.E.t1 VDDA.t146 sky130_fd_pr__pfet_01v8 ad=0.1 pd=0.9 as=0.2 ps=1.8 w=0.5 l=0.15
X94 a_2350_1400.t1 pfd_8_0.before_Reset.t4 VDDA.t206 VDDA.t205 sky130_fd_pr__pfet_01v8 ad=0.8 pd=4.8 as=0.8 ps=4.8 w=2 l=0.15
X95 VCO_FD_magic_0.div120_2_0.div5_2_0.K.t1 F_VCO.t5 VDDA.t45 VDDA.t44 sky130_fd_pr__pfet_01v8 ad=0.2 pd=1.8 as=0.1 ps=0.9 w=0.5 l=0.15
X96 GNDA.t261 a_6220_5810.t4 a_6220_5810.t5 GNDA.t260 sky130_fd_pr__nfet_01v8 ad=0.3125 pd=1.75 as=0.3125 ps=1.75 w=1.25 l=0.5
X97 GNDA.t188 GNDA.t185 GNDA.t187 GNDA.t186 sky130_fd_pr__nfet_01v8 ad=1 pd=5 as=0 ps=0 w=2 l=0.6
X98 VDDA.t23 VCO_FD_magic_0.div120_2_0.div2_4_2.A.t2 VCO_FD_magic_0.div120_2_0.div2_4_2.C.t3 VDDA.t22 sky130_fd_pr__pfet_01v8 ad=0.1 pd=0.9 as=0.2 ps=1.8 w=0.5 l=0.15
X99 GNDA.t184 GNDA.t182 GNDA.t184 GNDA.t183 sky130_fd_pr__nfet_01v8 ad=0.125 pd=1 as=0 ps=0 w=0.5 l=0.15
X100 a_5970_4630.t12 a_5970_4630.t11 a_5970_4630.t12 VDDA.t156 sky130_fd_pr__pfet_01v8 ad=0.25 pd=1.5 as=0 ps=0 w=1 l=0.15
X101 VDDA.t88 pfd_8_0.UP_input.t6 V_CONT.t3 VDDA.t87 sky130_fd_pr__pfet_01v8 ad=0.5 pd=2.5 as=0.5 ps=2.5 w=2 l=0.6
X102 pfd_8_0.F_b.t2 pfd_8_0.F.t4 GNDA.t263 GNDA.t262 sky130_fd_pr__nfet_01v8 ad=0.2 pd=1.4 as=0.4 ps=2.8 w=1 l=0.15
X103 VDDA.t102 pfd_8_0.F.t5 a_490_640.t1 VDDA.t101 sky130_fd_pr__pfet_01v8 ad=0.8 pd=4.8 as=0.4 ps=2.4 w=2 l=0.15
X104 GNDA.t271 loop_filter_2_0.R1_C1.t1 sky130_fd_pr__cap_mim_m3_1 l=60 w=69.8
X105 VDDA.t177 VDDA.t175 VDDA.t177 VDDA.t176 sky130_fd_pr__pfet_01v8 ad=0.25 pd=1.5 as=0 ps=0 w=1 l=0.15
X106 pfd_8_0.QA_b.t0 pfd_8_0.QA.t4 a_n30_1400.t1 VDDA.t26 sky130_fd_pr__pfet_01v8 ad=0.8 pd=4.8 as=0.4 ps=2.4 w=2 l=0.15
X107 GNDA.t181 GNDA.t179 GNDA.t181 GNDA.t180 sky130_fd_pr__nfet_01v8 ad=0.125 pd=1 as=0 ps=0 w=0.5 l=0.15
X108 GNDA.t99 VCO_FD_magic_0.div120_2_0.div8.t5 VCO_FD_magic_0.div120_2_0.div2_4_0.B.t0 GNDA.t98 sky130_fd_pr__nfet_01v8 ad=0.1 pd=0.9 as=0.1 ps=0.9 w=0.5 l=0.15
X109 GNDA.t122 VCO_FD_magic_0.div120_2_0.div24.t6 VCO_FD_magic_0.div120_2_0.div5_2_0.J.t1 GNDA.t121 sky130_fd_pr__nfet_01v8 ad=0.1 pd=0.9 as=0.1 ps=0.9 w=0.5 l=0.15
X110 GNDA.t14 pfd_8_0.F.t6 pfd_8_0.QB.t0 GNDA.t13 sky130_fd_pr__nfet_01v8 ad=0.4 pd=2.8 as=0.2 ps=1.4 w=1 l=0.15
X111 GNDA.t8 VCO_FD_magic_0.div120_2_0.div3_3_0.CLK.t5 VCO_FD_magic_0.div120_2_0.div3_3_0.H.t0 GNDA.t7 sky130_fd_pr__nfet_01v8 ad=0.1 pd=0.9 as=0.1 ps=0.9 w=0.5 l=0.15
X112 pfd_8_0.before_Reset.t0 pfd_8_0.QB.t4 VDDA.t43 VDDA.t42 sky130_fd_pr__pfet_01v8 ad=0.4 pd=2.4 as=0.805 ps=5 w=2 l=0.15
X113 GNDA.t6 V_CONT.t11 VCO_FD_magic_0.vco2_3_0.V7.t1 GNDA.t5 sky130_fd_pr__nfet_01v8 ad=0.4 pd=2.8 as=0.4 ps=2.8 w=1 l=0.15
X114 GNDA.t24 VDDA.t223 VCO_FD_magic_0.vco2_3_0.V5.t1 GNDA.t23 sky130_fd_pr__nfet_01v8 ad=0.2 pd=1.8 as=0.2 ps=1.8 w=0.5 l=0.15
X115 VDDA.t220 VCO_FD_magic_0.vco2_3_0.V1.t4 VCO_FD_magic_0.vco2_3_0.V2.t1 VDDA.t219 sky130_fd_pr__pfet_01v8 ad=0.8 pd=4.8 as=0.8 ps=4.8 w=2 l=1.5
X116 VDDA.t137 VCO_FD_magic_0.div120_2_0.div24.t7 VCO_FD_magic_0.div120_2_0.div5_2_0.E.t0 VDDA.t136 sky130_fd_pr__pfet_01v8 ad=0.2 pd=1.8 as=0.2 ps=1.8 w=0.5 l=0.15
X117 VDDA.t15 VCO_FD_magic_0.div120_2_0.div24.t8 VCO_FD_magic_0.div120_2_0.div5_2_0.Q2_b.t0 VDDA.t14 sky130_fd_pr__pfet_01v8 ad=0.1 pd=0.9 as=0.2 ps=1.8 w=0.5 l=0.15
X118 GNDA.t125 a_6490_4630.t6 pfd_8_0.opamp_out.t6 GNDA.t124 sky130_fd_pr__nfet_01v8 ad=0.125 pd=1 as=0.125 ps=1 w=0.5 l=0.15
X119 VDDA.t17 opamp_cell_4_0.n_right.t6 pfd_8_0.opamp_out.t0 VDDA.t16 sky130_fd_pr__pfet_01v8 ad=0.25 pd=1.5 as=0.25 ps=1.5 w=1 l=0.15
X120 opamp_cell_4_0.VIN+.t2 pfd_8_0.opamp_out.t13 VDDA.t119 VDDA.t118 sky130_fd_pr__pfet_01v8 ad=0.5 pd=2.5 as=0.5 ps=2.5 w=2 l=0.6
X121 VDDA.t25 VCO_FD_magic_0.div120_2_0.div3_3_0.CLK.t6 VCO_FD_magic_0.div120_2_0.div3_3_0.I.t0 VDDA.t24 sky130_fd_pr__pfet_01v8 ad=0.1 pd=0.9 as=0.2 ps=1.8 w=0.5 l=0.15
X122 a_490_1400.t0 pfd_8_0.QA_b.t5 pfd_8_0.QA.t1 VDDA.t128 sky130_fd_pr__pfet_01v8 ad=0.4 pd=2.4 as=0.8 ps=4.8 w=2 l=0.15
X123 pfd_8_0.UP_input.t2 pfd_8_0.UP_b.t3 pfd_8_0.opamp_out.t2 VDDA.t107 sky130_fd_pr__pfet_01v8 ad=1 pd=5 as=1 ps=5 w=2 l=0.15
X124 V_CONT.t0 pfd_8_0.UP_input.t7 VDDA.t61 VDDA.t60 sky130_fd_pr__pfet_01v8 ad=0.5 pd=2.5 as=0.5 ps=2.5 w=2 l=0.6
X125 VDDA.t151 GNDA.t272 VCO_FD_magic_0.vco2_3_0.V2.t2 VDDA.t129 sky130_fd_pr__pfet_01v8 ad=0.4 pd=2.8 as=0.4 ps=2.8 w=1 l=0.15
X126 GNDA.t18 pfd_8_0.Reset.t2 pfd_8_0.E_b.t0 GNDA.t17 sky130_fd_pr__nfet_01v8 ad=0.4 pd=2.8 as=0.2 ps=1.4 w=1 l=0.15
X127 GNDA.t101 VCO_FD_magic_0.div120_2_0.div2_4_1.C.t4 VCO_FD_magic_0.div120_2_0.div2.t0 GNDA.t100 sky130_fd_pr__nfet_01v8 ad=0.1 pd=0.9 as=0.2 ps=1.8 w=0.5 l=0.15
X128 GNDA.t31 VCO_FD_magic_0.div120_2_0.div3_3_0.I.t4 VCO_FD_magic_0.div120_2_0.div24.t0 GNDA.t30 sky130_fd_pr__nfet_01v8 ad=0.2 pd=1.8 as=0.2 ps=1.8 w=0.5 l=0.15
X129 VCO_FD_magic_0.vco2_3_0.V9.t0 V_OSC.t4 VCO_FD_magic_0.vco2_3_0.V7.t0 GNDA.t5 sky130_fd_pr__nfet_01v8 ad=0.2 pd=1.8 as=0.2 ps=1.8 w=0.5 l=0.15
X130 VCO_FD_magic_0.div120_2_0.div2_4_0.C.t3 a_6330_n1440.t3 GNDA.t269 GNDA.t268 sky130_fd_pr__nfet_01v8 ad=0.2 pd=1.8 as=0.1 ps=0.9 w=0.5 l=0.15
X131 a_2530_190.t0 a_2350_1400.t2 GNDA.t227 GNDA.t226 sky130_fd_pr__nfet_01v8 ad=0.4 pd=2.8 as=0.4 ps=2.8 w=1 l=0.15
X132 VDDA.t80 opamp_cell_4_0.n_left.t4 opamp_cell_4_0.n_left.t5 VDDA.t79 sky130_fd_pr__pfet_01v8 ad=0.25 pd=1.5 as=0.25 ps=1.5 w=1 l=0.15
X133 VCO_FD_magic_0.div120_2_0.div24.t1 VCO_FD_magic_0.div120_2_0.div3_3_0.I.t5 VDDA.t94 VDDA.t93 sky130_fd_pr__pfet_01v8 ad=0.1 pd=0.9 as=0.2 ps=1.8 w=0.5 l=0.15
X134 a_6320_5840.t11 V_CONT.t12 opamp_cell_4_0.n_left.t1 GNDA.t34 sky130_fd_pr__nfet_01v8 ad=0.125 pd=1 as=0.125 ps=1 w=0.5 l=0.15
X135 a_7630_n1440.t2 VCO_FD_magic_0.div120_2_0.div2.t3 VDDA.t1 VDDA.t0 sky130_fd_pr__pfet_01v8 ad=0.2 pd=1.8 as=0.1 ps=0.9 w=0.5 l=0.15
X136 VDDA.t143 VCO_FD_magic_0.div120_2_0.div3_3_0.I.t6 VCO_FD_magic_0.div120_2_0.div24.t2 VDDA.t142 sky130_fd_pr__pfet_01v8 ad=0.2 pd=1.8 as=0.1 ps=0.9 w=0.5 l=0.15
X137 VCO_FD_magic_0.div120_2_0.div3_3_0.C.t1 VCO_FD_magic_0.div120_2_0.div3_3_0.CLK.t7 GNDA.t46 GNDA.t45 sky130_fd_pr__nfet_01v8 ad=0.2 pd=1.8 as=0.1 ps=0.9 w=0.5 l=0.15
X138 GNDA.t120 VCO_FD_magic_0.div120_2_0.div24.t9 VCO_FD_magic_0.div120_2_0.div3_3_0.B.t0 GNDA.t119 sky130_fd_pr__nfet_01v8 ad=0.1 pd=0.9 as=0.1 ps=0.9 w=0.5 l=0.15
X139 pfd_8_0.E.t0 pfd_8_0.E_b.t4 a_870_1400.t0 VDDA.t9 sky130_fd_pr__pfet_01v8 ad=0.8 pd=4.8 as=0.4 ps=2.4 w=2 l=0.15
X140 pfd_8_0.UP_b.t2 pfd_8_0.UP.t4 VDDA.t196 VDDA.t192 sky130_fd_pr__pfet_01v8 ad=1 pd=5 as=1 ps=5 w=2 l=0.15
X141 VCO_FD_magic_0.div120_2_0.div5_2_0.H.t0 VCO_FD_magic_0.div120_2_0.div5_2_0.Q2_b.t5 VCO_FD_magic_0.div120_2_0.div5_2_0.I.t0 GNDA.t44 sky130_fd_pr__nfet_01v8 ad=0.1 pd=0.9 as=0.1 ps=0.9 w=0.5 l=0.15
X142 pfd_8_0.DOWN_input.t3 pfd_8_0.DOWN.t2 sky130_fd_pr__cap_mim_m3_1 l=3.8 w=2.7
X143 VDDA.t34 V_OSC.t5 a_8930_n1440.t1 VDDA.t33 sky130_fd_pr__pfet_01v8 ad=0.1 pd=0.9 as=0.2 ps=1.8 w=0.5 l=0.15
X144 VDDA.t76 VCO_FD_magic_0.div120_2_0.div8.t6 VCO_FD_magic_0.div120_2_0.div3_3_0.CLK.t1 VDDA.t75 sky130_fd_pr__pfet_01v8 ad=0.1 pd=0.9 as=0.2 ps=1.8 w=0.5 l=0.15
X145 VCO_FD_magic_0.div120_2_0.div5_2_0.C.t0 VCO_FD_magic_0.div120_2_0.div24.t10 VCO_FD_magic_0.div120_2_0.div5_2_0.B.t0 GNDA.t64 sky130_fd_pr__nfet_01v8 ad=0.1 pd=0.9 as=0.2 ps=1.8 w=0.5 l=0.15
X146 a_5970_4630.t10 a_5970_4630.t8 a_5970_4630.t9 VDDA.t155 sky130_fd_pr__pfet_01v8 ad=0.5 pd=3 as=0 ps=0 w=1 l=0.15
X147 VCO_FD_magic_0.div120_2_0.div2_4_0.C.t2 a_6330_n1440.t4 GNDA.t217 GNDA.t216 sky130_fd_pr__nfet_01v8 ad=0.1 pd=0.9 as=0.1 ps=0.9 w=0.5 l=0.15
X148 GNDA.t178 GNDA.t175 GNDA.t177 GNDA.t176 sky130_fd_pr__nfet_01v8 ad=0.25 pd=2 as=0 ps=0 w=0.5 l=0.15
X149 VDDA.t28 a_1870_190.t2 pfd_8_0.Reset.t0 VDDA.t27 sky130_fd_pr__pfet_01v8 ad=0.8 pd=4.8 as=0.8 ps=4.8 w=2 l=0.15
X150 pfd_8_0.opamp_out.t1 a_6490_4630.t7 GNDA.t22 GNDA.t21 sky130_fd_pr__nfet_01v8 ad=0.125 pd=1 as=0.125 ps=1 w=0.5 l=0.15
X151 pfd_8_0.opamp_out.t7 opamp_cell_4_0.n_right.t7 VDDA.t149 VDDA.t148 sky130_fd_pr__pfet_01v8 ad=0.25 pd=1.5 as=0.25 ps=1.5 w=1 l=0.15
X152 VCO_FD_magic_0.div120_2_0.div5_2_0.G.t1 VCO_FD_magic_0.div120_2_0.div5_2_0.Q2_b.t6 VDDA.t59 VDDA.t58 sky130_fd_pr__pfet_01v8 ad=0.2 pd=1.8 as=0.1 ps=0.9 w=0.5 l=0.15
X153 GNDA.t267 VCO_FD_magic_0.div120_2_0.div4.t3 VCO_FD_magic_0.div120_2_0.div2_4_2.B.t1 GNDA.t266 sky130_fd_pr__nfet_01v8 ad=0.1 pd=0.9 as=0.1 ps=0.9 w=0.5 l=0.15
X154 VDDA.t86 VCO_FD_magic_0.div120_2_0.div5_2_0.B.t2 VCO_FD_magic_0.div120_2_0.div5_2_0.D.t3 VDDA.t85 sky130_fd_pr__pfet_01v8 ad=0.1 pd=0.9 as=0.2 ps=1.8 w=0.5 l=0.15
X155 VDDA.t41 a_7630_n1440.t5 VCO_FD_magic_0.div120_2_0.div4.t0 VDDA.t40 sky130_fd_pr__pfet_01v8 ad=0.2 pd=1.8 as=0.2 ps=1.8 w=0.5 l=0.15
X156 VCO_FD_magic_0.div120_2_0.div2_4_0.B.t1 a_6330_n1440.t5 VCO_FD_magic_0.div120_2_0.div2_4_0.A.t1 GNDA.t87 sky130_fd_pr__nfet_01v8 ad=0.1 pd=0.9 as=0.2 ps=1.8 w=0.5 l=0.15
X157 GNDA.t38 a_1870_190.t3 pfd_8_0.Reset.t1 GNDA.t37 sky130_fd_pr__nfet_01v8 ad=0.4 pd=2.8 as=0.4 ps=2.8 w=1 l=0.15
X158 V_OSC.t1 VCO_FD_magic_0.vco2_3_0.V8.t3 VCO_FD_magic_0.vco2_3_0.V2.t0 VDDA.t129 sky130_fd_pr__pfet_01v8 ad=0.4 pd=2.8 as=0.4 ps=2.8 w=1 l=0.15
X159 VCO_FD_magic_0.div120_2_0.div2_4_1.A.t1 VCO_FD_magic_0.div120_2_0.div2.t4 VDDA.t113 VDDA.t112 sky130_fd_pr__pfet_01v8 ad=0.2 pd=1.8 as=0.1 ps=0.9 w=0.5 l=0.15
X160 VCO_FD_magic_0.div120_2_0.div3_3_0.A.t0 VCO_FD_magic_0.div120_2_0.div24.t11 VDDA.t74 VDDA.t73 sky130_fd_pr__pfet_01v8 ad=0.2 pd=1.8 as=0.1 ps=0.9 w=0.5 l=0.15
X161 VDDA.t174 VDDA.t171 VDDA.t173 VDDA.t172 sky130_fd_pr__pfet_01v8 ad=1 pd=5 as=0 ps=0 w=2 l=0.6
X162 VCO_FD_magic_0.div120_2_0.div5_2_0.D.t1 VCO_FD_magic_0.div120_2_0.div24.t12 GNDA.t237 GNDA.t236 sky130_fd_pr__nfet_01v8 ad=0.1 pd=0.9 as=0.1 ps=0.9 w=0.5 l=0.15
X163 opamp_cell_4_0.p_bias.t3 opamp_cell_4_0.p_bias.t2 VDDA.t21 VDDA.t20 sky130_fd_pr__pfet_01v8 ad=0.625 pd=3 as=0.625 ps=3 w=2.5 l=0.5
X164 opamp_cell_4_0.p_bias.t8 a_6220_5810.t8 GNDA.t36 sky130_fd_pr__res_xhigh_po_5p73 l=1
X165 VDDA.t145 VCO_FD_magic_0.vco2_3_0.V1.t5 VCO_FD_magic_0.vco2_3_0.V6.t1 VDDA.t144 sky130_fd_pr__pfet_01v8 ad=0.8 pd=4.8 as=0.8 ps=4.8 w=2 l=1.5
X166 GNDA.t221 VCO_FD_magic_0.div120_2_0.div3_3_0.C.t4 VCO_FD_magic_0.div120_2_0.div3_3_0.D.t1 GNDA.t220 sky130_fd_pr__nfet_01v8 ad=0.1 pd=0.9 as=0.2 ps=1.8 w=0.5 l=0.15
X167 VCO_FD_magic_0.div120_2_0.div3_3_0.E.t0 VCO_FD_magic_0.div120_2_0.div3_3_0.CLK.t8 VCO_FD_magic_0.div120_2_0.div3_3_0.F.t0 GNDA.t115 sky130_fd_pr__nfet_01v8 ad=0.2 pd=1.8 as=0.1 ps=0.9 w=0.5 l=0.15
X168 opamp_cell_4_0.n_left.t3 opamp_cell_4_0.n_left.t2 VDDA.t53 VDDA.t52 sky130_fd_pr__pfet_01v8 ad=0.25 pd=1.5 as=0.25 ps=1.5 w=1 l=0.15
X169 GNDA.t16 VCO_FD_magic_0.div120_2_0.div5_2_0.M.t4 F_VCO.t0 GNDA.t15 sky130_fd_pr__nfet_01v8 ad=0.1 pd=0.9 as=0.2 ps=1.8 w=0.5 l=0.15
X170 GNDA.t273 V_CONT.t5 sky130_fd_pr__cap_mim_m3_1 l=60 w=13.8
X171 opamp_cell_4_0.n_left.t0 V_CONT.t13 a_6320_5840.t10 GNDA.t54 sky130_fd_pr__nfet_01v8 ad=0.125 pd=1 as=0.125 ps=1 w=0.5 l=0.15
X172 VCO_FD_magic_0.div120_2_0.div5_2_0.L.t0 VCO_FD_magic_0.div120_2_0.div5_2_0.Q2_b.t7 VCO_FD_magic_0.div120_2_0.div5_2_0.K.t0 GNDA.t51 sky130_fd_pr__nfet_01v8 ad=0.1 pd=0.9 as=0.2 ps=1.8 w=0.5 l=0.15
X173 VDDA.t57 VCO_FD_magic_0.div120_2_0.div2_4_0.A.t2 VCO_FD_magic_0.div120_2_0.div2_4_0.C.t0 VDDA.t56 sky130_fd_pr__pfet_01v8 ad=0.1 pd=0.9 as=0.2 ps=1.8 w=0.5 l=0.15
X174 a_5970_4630.t0 opamp_cell_4_0.p_bias.t11 VDDA.t19 VDDA.t18 sky130_fd_pr__pfet_01v8 ad=0.625 pd=3 as=0.625 ps=3 w=2.5 l=0.5
X175 pfd_8_0.before_Reset.t1 pfd_8_0.QA.t5 a_1910_2020.t0 GNDA.t86 sky130_fd_pr__nfet_01v8 ad=0.4 pd=2.8 as=0.2 ps=1.4 w=1 l=0.15
X176 pfd_8_0.UP_PFD_b.t0 pfd_8_0.QA.t6 GNDA.t229 GNDA.t228 sky130_fd_pr__nfet_01v8 ad=0.5 pd=3 as=0.5 ps=3 w=1 l=0.15
X177 VDDA.t150 GNDA.t274 VCO_FD_magic_0.vco2_3_0.V6.t2 VDDA.t48 sky130_fd_pr__pfet_01v8 ad=0.4 pd=2.8 as=0.4 ps=2.8 w=1 l=0.15
X178 VCO_FD_magic_0.div120_2_0.div2_4_2.C.t1 a_7630_n1440.t6 GNDA.t114 GNDA.t113 sky130_fd_pr__nfet_01v8 ad=0.2 pd=1.8 as=0.1 ps=0.9 w=0.5 l=0.15
X179 GNDA.t66 pfd_8_0.E.t4 pfd_8_0.QA.t0 GNDA.t65 sky130_fd_pr__nfet_01v8 ad=0.4 pd=2.8 as=0.2 ps=1.4 w=1 l=0.15
X180 VDDA.t13 VCO_FD_magic_0.div120_2_0.div5_2_0.K.t2 VCO_FD_magic_0.div120_2_0.div5_2_0.M.t0 VDDA.t12 sky130_fd_pr__pfet_01v8 ad=0.1 pd=0.9 as=0.2 ps=1.8 w=0.5 l=0.15
X181 a_9360_6440.t1 a_6490_4630.t2 GNDA.t154 sky130_fd_pr__res_xhigh_po_0p35 l=0.86
X182 VDDA.t170 VDDA.t168 VDDA.t170 VDDA.t169 sky130_fd_pr__pfet_01v8 ad=0.625 pd=3 as=0 ps=0 w=2.5 l=0.5
X183 VDDA.t106 pfd_8_0.Reset.t3 a_1390_1400.t0 VDDA.t4 sky130_fd_pr__pfet_01v8 ad=0.8 pd=4.8 as=0.4 ps=2.4 w=2 l=0.15
X184 pfd_8_0.F.t0 pfd_8_0.F_b.t3 a_870_640.t0 VDDA.t9 sky130_fd_pr__pfet_01v8 ad=0.8 pd=4.8 as=0.4 ps=2.4 w=2 l=0.15
X185 a_2530_190.t1 a_2350_1400.t3 VDDA.t64 VDDA.t63 sky130_fd_pr__pfet_01v8 ad=0.8 pd=4.8 as=0.8 ps=4.8 w=2 l=0.15
X186 GNDA.t174 GNDA.t172 GNDA.t174 GNDA.t173 sky130_fd_pr__nfet_01v8 ad=0.5 pd=2.5 as=0 ps=0 w=2 l=0.6
X187 GNDA.t151 a_6220_5810.t2 a_6220_5810.t3 GNDA.t150 sky130_fd_pr__nfet_01v8 ad=0.3125 pd=1.75 as=0.3125 ps=1.75 w=1.25 l=0.5
X188 GNDA.t156 a_6490_4630.t8 pfd_8_0.opamp_out.t8 GNDA.t155 sky130_fd_pr__nfet_01v8 ad=0.125 pd=1 as=0.125 ps=1 w=0.5 l=0.15
X189 VDDA.t70 opamp_cell_4_0.n_right.t8 pfd_8_0.opamp_out.t3 VDDA.t69 sky130_fd_pr__pfet_01v8 ad=0.25 pd=1.5 as=0.25 ps=1.5 w=1 l=0.15
X190 VDDA.t167 VDDA.t164 VDDA.t166 VDDA.t165 sky130_fd_pr__pfet_01v8 ad=1.25 pd=6 as=0 ps=0 w=2.5 l=0.5
X191 GNDA.t10 a_8930_n1440.t6 VCO_FD_magic_0.div120_2_0.div2_4_1.C.t2 GNDA.t9 sky130_fd_pr__nfet_01v8 ad=0.1 pd=0.9 as=0.1 ps=0.9 w=0.5 l=0.15
X192 GNDA.t135 pfd_8_0.F_b.t4 pfd_8_0.F.t2 GNDA.t134 sky130_fd_pr__nfet_01v8 ad=0.4 pd=2.8 as=0.2 ps=1.4 w=1 l=0.15
X193 VCO_FD_magic_0.div120_2_0.div5_2_0.J.t3 VCO_FD_magic_0.div120_2_0.div24.t13 GNDA.t259 GNDA.t258 sky130_fd_pr__nfet_01v8 ad=0.1 pd=0.9 as=0.1 ps=0.9 w=0.5 l=0.15
X194 GNDA.t12 a_6220_5810.t11 a_6320_5840.t0 GNDA.t11 sky130_fd_pr__nfet_01v8 ad=0.3125 pd=1.75 as=0.3125 ps=1.75 w=1.25 l=0.5
X195 pfd_8_0.QB_b.t0 pfd_8_0.QB.t5 a_n30_640.t0 VDDA.t26 sky130_fd_pr__pfet_01v8 ad=0.8 pd=4.8 as=0.4 ps=2.4 w=2 l=0.15
X196 VCO_FD_magic_0.div120_2_0.div2_4_2.C.t0 a_7630_n1440.t7 GNDA.t104 GNDA.t103 sky130_fd_pr__nfet_01v8 ad=0.1 pd=0.9 as=0.1 ps=0.9 w=0.5 l=0.15
X197 GNDA.t164 a_6200_5250.t6 a_6490_4630.t4 GNDA.t163 sky130_fd_pr__nfet_01v8 ad=0.125 pd=1 as=0.125 ps=1 w=0.5 l=0.15
X198 a_5970_4630.t2 opamp_cell_4_0.VIN+.t7 a_6490_4630.t1 VDDA.t62 sky130_fd_pr__pfet_01v8 ad=0.25 pd=1.5 as=0.25 ps=1.5 w=1 l=0.15
X199 VDDA.t98 opamp_cell_4_0.p_bias.t12 a_5970_4630.t4 VDDA.t97 sky130_fd_pr__pfet_01v8 ad=0.625 pd=3 as=0.625 ps=3 w=2.5 l=0.5
X200 VCO_FD_magic_0.div120_2_0.div3_3_0.H.t2 VCO_FD_magic_0.div120_2_0.div3_3_0.CLK.t9 GNDA.t110 GNDA.t109 sky130_fd_pr__nfet_01v8 ad=0.1 pd=0.9 as=0.1 ps=0.9 w=0.5 l=0.15
X201 GNDA.t63 VCO_FD_magic_0.div120_2_0.div2.t5 VCO_FD_magic_0.div120_2_0.div2_4_1.B.t1 GNDA.t62 sky130_fd_pr__nfet_01v8 ad=0.1 pd=0.9 as=0.1 ps=0.9 w=0.5 l=0.15
X202 VDDA.t5 pfd_8_0.Reset.t4 a_1390_640.t0 VDDA.t4 sky130_fd_pr__pfet_01v8 ad=0.8 pd=4.8 as=0.4 ps=2.4 w=2 l=0.15
X203 VDDA.t30 opamp_cell_4_0.p_bias.t0 opamp_cell_4_0.p_bias.t1 VDDA.t29 sky130_fd_pr__pfet_01v8 ad=0.625 pd=3 as=0.625 ps=3 w=2.5 l=0.5
X204 opamp_cell_4_0.n_right.t3 a_9360_3514.t1 GNDA.t154 sky130_fd_pr__res_xhigh_po_0p35 l=1.14
X205 pfd_8_0.UP_input.t0 pfd_8_0.UP.t5 VDDA.t47 VDDA.t46 sky130_fd_pr__pfet_01v8 ad=1 pd=5 as=1 ps=5 w=2 l=0.15
X206 VDDA.t163 VDDA.t160 VDDA.t162 VDDA.t161 sky130_fd_pr__pfet_01v8 ad=0.5 pd=3 as=0 ps=0 w=1 l=0.15
X207 a_6320_5840.t8 a_6320_5840.t6 a_6320_5840.t7 GNDA.t242 sky130_fd_pr__nfet_01v8 ad=0.25 pd=2 as=0 ps=0 w=0.5 l=0.15
X208 GNDA.t97 pfd_8_0.QB.t6 pfd_8_0.QB_b.t1 GNDA.t96 sky130_fd_pr__nfet_01v8 ad=0.4 pd=2.8 as=0.2 ps=1.4 w=1 l=0.15
X209 a_6320_5840.t1 a_6220_5810.t12 GNDA.t27 GNDA.t26 sky130_fd_pr__nfet_01v8 ad=0.3125 pd=1.75 as=0.3125 ps=1.75 w=1.25 l=0.5
X210 GNDA.t53 pfd_8_0.Reset.t5 pfd_8_0.F_b.t0 GNDA.t52 sky130_fd_pr__nfet_01v8 ad=0.4 pd=2.8 as=0.2 ps=1.4 w=1 l=0.15
X211 a_6330_n1440.t1 VCO_FD_magic_0.div120_2_0.div4.t4 VDDA.t55 VDDA.t54 sky130_fd_pr__pfet_01v8 ad=0.2 pd=1.8 as=0.1 ps=0.9 w=0.5 l=0.15
X212 VCO_FD_magic_0.vco2_3_0.V9.t1 V_OSC.t6 VCO_FD_magic_0.vco2_3_0.V6.t0 VDDA.t48 sky130_fd_pr__pfet_01v8 ad=0.4 pd=2.8 as=0.4 ps=2.8 w=1 l=0.15
X213 GNDA.t231 pfd_8_0.DOWN_input.t4 V_CONT.t6 GNDA.t230 sky130_fd_pr__nfet_01v8 ad=0.5 pd=2.5 as=0.5 ps=2.5 w=2 l=0.6
X214 a_6320_5840.t5 a_6320_5840.t4 a_6320_5840.t5 GNDA.t35 sky130_fd_pr__nfet_01v8 ad=0.125 pd=1 as=0 ps=0 w=0.5 l=0.15
X215 VDDA.t159 VDDA.t157 VDDA.t159 VDDA.t158 sky130_fd_pr__pfet_01v8 ad=0.25 pd=1.5 as=0 ps=0 w=1 l=0.15
X216 a_6220_5810.t1 a_6220_5810.t0 GNDA.t58 GNDA.t57 sky130_fd_pr__nfet_01v8 ad=0.3125 pd=1.75 as=0.3125 ps=1.75 w=1.25 l=0.5
X217 GNDA.t102 V_CONT.t14 VCO_FD_magic_0.vco2_3_0.V3.t1 GNDA.t59 sky130_fd_pr__nfet_01v8 ad=0.4 pd=2.8 as=0.4 ps=2.8 w=1 l=0.15
X218 VDDA.t127 VCO_FD_magic_0.div120_2_0.div2.t6 a_7630_n1440.t1 VDDA.t126 sky130_fd_pr__pfet_01v8 ad=0.1 pd=0.9 as=0.2 ps=1.8 w=0.5 l=0.15
X219 pfd_8_0.E.t1 pfd_8_0.QA_b.t6 GNDA.t255 GNDA.t254 sky130_fd_pr__nfet_01v8 ad=0.2 pd=1.4 as=0.4 ps=2.8 w=1 l=0.15
X220 GNDA.t33 I_IN.t6 opamp_cell_4_0.VIN+.t4 GNDA.t32 sky130_fd_pr__nfet_01v8 ad=0.5 pd=2.5 as=0.5 ps=2.5 w=2 l=0.6
X221 GNDA.t149 VCO_FD_magic_0.div120_2_0.div3_3_0.CLK.t10 VCO_FD_magic_0.div120_2_0.div3_3_0.C.t0 GNDA.t148 sky130_fd_pr__nfet_01v8 ad=0.1 pd=0.9 as=0.1 ps=0.9 w=0.5 l=0.15
X222 a_6330_n1440.t0 VCO_FD_magic_0.div120_2_0.div4.t5 GNDA.t244 GNDA.t243 sky130_fd_pr__nfet_01v8 ad=0.2 pd=1.8 as=0.1 ps=0.9 w=0.5 l=0.15
X223 VCO_FD_magic_0.div120_2_0.div3_3_0.B.t1 VCO_FD_magic_0.div120_2_0.div3_3_0.CLK.t11 VCO_FD_magic_0.div120_2_0.div3_3_0.A.t1 GNDA.t116 sky130_fd_pr__nfet_01v8 ad=0.1 pd=0.9 as=0.2 ps=1.8 w=0.5 l=0.15