* PEX produced on Tue Feb 25 01:31:39 PM CET 2025 using /foss/tools/osic-multitool/iic-pex.sh with m=3 and s=1
* NGSPICE file created from full_pll_magic_3.ext - technology: sky130A

.subckt full_pll_magic_2 V_OSC VDDA GNDA F_REF I_IN
X0 GNDA.t187 a_6200_5250.t4 a_6200_5250.t5 GNDA.t186 sky130_fd_pr__nfet_01v8 ad=0.125 pd=1 as=0.125 ps=1 w=0.5 l=0.15
X1 a_5970_4630.t6 V_CONT.t8 a_6200_5250.t1 VDDA.t146 sky130_fd_pr__pfet_01v8 ad=0.25 pd=1.5 as=0.25 ps=1.5 w=1 l=0.15
X2 GNDA.t229 GNDA.t227 GNDA.t229 GNDA.t228 sky130_fd_pr__nfet_01v8 ad=0.5 pd=2.5 as=0 ps=0 w=2 l=0.6
X3 a_7630_n1440.t0 VCO_FD_magic_0.div120_2_0.div2.t2 GNDA.t83 GNDA.t82 sky130_fd_pr__nfet_01v8 ad=0.2 pd=1.8 as=0.1 ps=0.9 w=0.5 l=0.15
X4 a_870_1400.t1 pfd_8_0.QA_b.t3 VDDA.t51 VDDA.t9 sky130_fd_pr__pfet_01v8 ad=0.4 pd=2.4 as=0.8 ps=4.8 w=2 l=0.15
X5 pfd_8_0.DOWN_b.t1 VDDA.t221 pfd_8_0.DOWN_PFD_b.t3 GNDA.t25 sky130_fd_pr__nfet_01v8 ad=0.5 pd=3 as=0.5 ps=3 w=1 l=0.15
X6 GNDA.t172 VCO_FD_magic_0.div120_2_0.div5_2_0.J.t4 VCO_FD_magic_0.div120_2_0.div5_2_0.Q2_b.t1 GNDA.t171 sky130_fd_pr__nfet_01v8 ad=0.1 pd=0.9 as=0.2 ps=1.8 w=0.5 l=0.15
X7 VCO_FD_magic_0.div120_2_0.div5_2_0.J.t0 VCO_FD_magic_0.div120_2_0.div24.t3 GNDA.t11 GNDA.t10 sky130_fd_pr__nfet_01v8 ad=0.2 pd=1.8 as=0.1 ps=0.9 w=0.5 l=0.15
X8 GNDA.t20 VCO_FD_magic_0.div120_2_0.div3_3_0.H.t4 VCO_FD_magic_0.div120_2_0.div3_3_0.I.t0 GNDA.t19 sky130_fd_pr__nfet_01v8 ad=0.1 pd=0.9 as=0.2 ps=1.8 w=0.5 l=0.15
X9 pfd_8_0.DOWN.t1 pfd_8_0.DOWN_b.t2 VDDA.t12 VDDA.t11 sky130_fd_pr__pfet_01v8 ad=1 pd=5 as=1 ps=5 w=2 l=0.15
X10 pfd_8_0.UP_input.t3 pfd_8_0.UP_b.t1 sky130_fd_pr__cap_mim_m3_1 l=6.3 w=5.2
X11 VDDA.t48 VCO_FD_magic_0.vco2_3_0.V1.t3 VCO_FD_magic_0.vco2_3_0.V4.t0 VDDA.t47 sky130_fd_pr__pfet_01v8 ad=0.8 pd=4.8 as=0.8 ps=4.8 w=2 l=1.5
X12 VCO_FD_magic_0.div120_2_0.div5_2_0.J.t1 VCO_FD_magic_0.div120_2_0.div5_2_0.G.t3 VDDA.t67 VDDA.t66 sky130_fd_pr__pfet_01v8 ad=0.2 pd=1.8 as=0.1 ps=0.9 w=0.5 l=0.15
X13 VDDA.t137 pfd_8_0.opamp_out.t10 opamp_cell_4_0.VIN+.t5 VDDA.t136 sky130_fd_pr__pfet_01v8 ad=0.5 pd=2.5 as=0.5 ps=2.5 w=2 l=0.6
X14 opamp_cell_4_0.n_right.t1 opamp_cell_4_0.VIN+.t6 a_6320_5840.t0 GNDA.t87 sky130_fd_pr__nfet_01v8 ad=0.125 pd=1 as=0.125 ps=1 w=0.5 l=0.15
X15 opamp_cell_4_0.n_right.t2 opamp_cell_4_0.n_left.t6 VDDA.t46 VDDA.t45 sky130_fd_pr__pfet_01v8 ad=0.25 pd=1.5 as=0.25 ps=1.5 w=1 l=0.15
X16 pfd_8_0.opamp_out.t2 opamp_cell_4_0.n_right.t5 VDDA.t32 VDDA.t31 sky130_fd_pr__pfet_01v8 ad=0.25 pd=1.5 as=0.25 ps=1.5 w=1 l=0.15
X17 GNDA.t90 VCO_FD_magic_0.div120_2_0.div2_4_0.C.t4 VCO_FD_magic_0.div120_2_0.div8.t1 GNDA.t89 sky130_fd_pr__nfet_01v8 ad=0.1 pd=0.9 as=0.2 ps=1.8 w=0.5 l=0.15
X18 pfd_8_0.opamp_out.t1 a_6490_4630.t5 GNDA.t22 GNDA.t21 sky130_fd_pr__nfet_01v8 ad=0.125 pd=1 as=0.125 ps=1 w=0.5 l=0.15
X19 a_2350_1400.t0 pfd_8_0.before_Reset.t3 GNDA.t59 GNDA.t58 sky130_fd_pr__nfet_01v8 ad=0.4 pd=2.8 as=0.4 ps=2.8 w=1 l=0.15
X20 VDDA.t144 GNDA.t270 VCO_FD_magic_0.vco2_3_0.V4.t2 VDDA.t42 sky130_fd_pr__pfet_01v8 ad=0.4 pd=2.8 as=0.4 ps=2.8 w=1 l=0.15
X21 pfd_8_0.DOWN.t0 pfd_8_0.DOWN_b.t3 GNDA.t141 GNDA.t140 sky130_fd_pr__nfet_01v8 ad=0.5 pd=3 as=0.5 ps=3 w=1 l=0.15
X22 VCO_FD_magic_0.div120_2_0.div2_4_2.B.t0 a_7630_n1440.t3 VCO_FD_magic_0.div120_2_0.div2_4_2.A.t0 GNDA.t168 sky130_fd_pr__nfet_01v8 ad=0.1 pd=0.9 as=0.2 ps=1.8 w=0.5 l=0.15
X23 VDDA.t39 opamp_cell_4_0.p_bias.t7 opamp_cell_4_0.p_bias.t8 VDDA.t38 sky130_fd_pr__pfet_01v8 ad=0.625 pd=3 as=0.625 ps=3 w=2.5 l=0.5
X24 a_n30_1400.t0 F_REF.t0 VDDA.t218 VDDA.t82 sky130_fd_pr__pfet_01v8 ad=0.4 pd=2.4 as=0.8 ps=4.8 w=2 l=0.15
X25 GNDA.t152 I_IN.t3 I_IN.t4 GNDA.t151 sky130_fd_pr__nfet_01v8 ad=0.5 pd=2.5 as=0.5 ps=2.5 w=2 l=0.6
X26 VDDA.t85 VCO_FD_magic_0.div120_2_0.div4.t2 a_6330_n1440.t2 VDDA.t84 sky130_fd_pr__pfet_01v8 ad=0.1 pd=0.9 as=0.2 ps=1.8 w=0.5 l=0.15
X27 GNDA.t24 pfd_8_0.QA.t3 pfd_8_0.QA_b.t0 GNDA.t23 sky130_fd_pr__nfet_01v8 ad=0.4 pd=2.8 as=0.2 ps=1.4 w=1 l=0.15
X28 a_6200_5250.t3 a_6200_5250.t2 GNDA.t185 GNDA.t184 sky130_fd_pr__nfet_01v8 ad=0.125 pd=1 as=0.125 ps=1 w=0.5 l=0.15
X29 a_6200_5250.t0 V_CONT.t9 a_5970_4630.t5 VDDA.t145 sky130_fd_pr__pfet_01v8 ad=0.25 pd=1.5 as=0.25 ps=1.5 w=1 l=0.15
X30 VDDA.t104 opamp_cell_4_0.p_bias.t9 a_5970_4630.t1 VDDA.t103 sky130_fd_pr__pfet_01v8 ad=0.625 pd=3 as=0.625 ps=3 w=2.5 l=0.5
X31 VDDA.t183 VDDA.t180 VDDA.t182 VDDA.t181 sky130_fd_pr__pfet_01v8 ad=1 pd=5 as=0 ps=0 w=2 l=0.6
X32 GNDA.t271 loop_filter_3_0.R1_C1.t1 sky130_fd_pr__cap_mim_m3_1 l=70 w=70
X33 VCO_FD_magic_0.div120_2_0.div2_4_1.C.t2 a_8930_n1440.t3 GNDA.t122 GNDA.t121 sky130_fd_pr__nfet_01v8 ad=0.2 pd=1.8 as=0.1 ps=0.9 w=0.5 l=0.15
X34 VDDA.t179 VDDA.t177 VDDA.t179 VDDA.t178 sky130_fd_pr__pfet_01v8 ad=0.5 pd=2.5 as=0 ps=0 w=2 l=0.6
X35 pfd_8_0.DOWN_input.t0 pfd_8_0.DOWN_b.t4 I_IN.t0 VDDA.t68 sky130_fd_pr__pfet_01v8 ad=1 pd=5 as=1 ps=5 w=2 l=0.15
X36 VDDA.t209 VCO_FD_magic_0.div120_2_0.div3_3_0.CLK.t3 VCO_FD_magic_0.div120_2_0.div3_3_0.D.t0 VDDA.t208 sky130_fd_pr__pfet_01v8 ad=0.2 pd=1.8 as=0.2 ps=1.8 w=0.5 l=0.15
X37 VCO_FD_magic_0.div120_2_0.div3_3_0.CLK.t0 VCO_FD_magic_0.div120_2_0.div8.t2 GNDA.t146 GNDA.t145 sky130_fd_pr__nfet_01v8 ad=0.2 pd=1.8 as=0.1 ps=0.9 w=0.5 l=0.15
X38 VCO_FD_magic_0.div120_2_0.div3_3_0.C.t2 VCO_FD_magic_0.div120_2_0.div3_3_0.CLK.t4 GNDA.t118 GNDA.t117 sky130_fd_pr__nfet_01v8 ad=0.1 pd=0.9 as=0.1 ps=0.9 w=0.5 l=0.15
X39 a_1910_2020.t0 pfd_8_0.QB.t3 GNDA.t15 GNDA.t14 sky130_fd_pr__nfet_01v8 ad=0.2 pd=1.4 as=0.4 ps=2.8 w=1 l=0.15
X40 VDDA.t14 pfd_8_0.UP_input.t4 V_CONT.t0 VDDA.t13 sky130_fd_pr__pfet_01v8 ad=0.5 pd=2.5 as=0.5 ps=2.5 w=2 l=0.6
X41 a_6220_5810.t8 a_6220_5810.t7 GNDA.t75 GNDA.t74 sky130_fd_pr__nfet_01v8 ad=0.3125 pd=1.75 as=0.3125 ps=1.75 w=1.25 l=0.5
X42 GNDA.t92 a_7630_n1440.t4 VCO_FD_magic_0.div120_2_0.div2_4_2.C.t2 GNDA.t91 sky130_fd_pr__nfet_01v8 ad=0.1 pd=0.9 as=0.1 ps=0.9 w=0.5 l=0.15
X43 pfd_8_0.UP.t1 pfd_8_0.UP_PFD_b.t2 VDDA.t127 VDDA.t126 sky130_fd_pr__pfet_01v8 ad=1 pd=5 as=1 ps=5 w=2 l=0.15
X44 VCO_FD_magic_0.div120_2_0.div3_3_0.CLK.t2 VCO_FD_magic_0.div120_2_0.div8.t3 VDDA.t217 VDDA.t216 sky130_fd_pr__pfet_01v8 ad=0.2 pd=1.8 as=0.1 ps=0.9 w=0.5 l=0.15
X45 GNDA.t120 F_VCO.t2 VCO_FD_magic_0.div120_2_0.div5_2_0.I.t2 GNDA.t119 sky130_fd_pr__nfet_01v8 ad=0.1 pd=0.9 as=0.2 ps=1.8 w=0.5 l=0.15
X46 VCO_FD_magic_0.div120_2_0.div5_2_0.G.t0 VCO_FD_magic_0.div120_2_0.div24.t4 VCO_FD_magic_0.div120_2_0.div5_2_0.H.t0 GNDA.t18 sky130_fd_pr__nfet_01v8 ad=0.2 pd=1.8 as=0.1 ps=0.9 w=0.5 l=0.15
X47 a_8930_n1440.t0 V_OSC.t2 VDDA.t8 VDDA.t7 sky130_fd_pr__pfet_01v8 ad=0.2 pd=1.8 as=0.1 ps=0.9 w=0.5 l=0.15
X48 VDDA.t74 VCO_FD_magic_0.div120_2_0.div5_2_0.Q2_b.t2 F_VCO.t0 VDDA.t73 sky130_fd_pr__pfet_01v8 ad=0.2 pd=1.8 as=0.2 ps=1.8 w=0.5 l=0.15
X49 a_8930_n1440.t1 V_OSC.t3 GNDA.t31 GNDA.t30 sky130_fd_pr__nfet_01v8 ad=0.2 pd=1.8 as=0.1 ps=0.9 w=0.5 l=0.15
X50 GNDA.t111 VCO_FD_magic_0.div120_2_0.div5_2_0.A.t3 VCO_FD_magic_0.div120_2_0.div5_2_0.C.t1 GNDA.t110 sky130_fd_pr__nfet_01v8 ad=0.2 pd=1.8 as=0.1 ps=0.9 w=0.5 l=0.15
X51 a_6320_5840.t8 a_6220_5810.t9 GNDA.t174 GNDA.t173 sky130_fd_pr__nfet_01v8 ad=0.3125 pd=1.75 as=0.3125 ps=1.75 w=1.25 l=0.5
X52 pfd_8_0.QA.t2 pfd_8_0.QA_b.t4 GNDA.t55 GNDA.t54 sky130_fd_pr__nfet_01v8 ad=0.2 pd=1.4 as=0.4 ps=2.8 w=1 l=0.15
X53 pfd_8_0.UP_input.t0 pfd_8_0.UP.t2 pfd_8_0.opamp_out.t4 GNDA.t86 sky130_fd_pr__nfet_01v8 ad=0.5 pd=3 as=0.5 ps=3 w=1 l=0.15
X54 VDDA.t37 VCO_FD_magic_0.div120_2_0.div5_2_0.Q2_b.t3 VCO_FD_magic_0.div120_2_0.div5_2_0.A.t2 VDDA.t36 sky130_fd_pr__pfet_01v8 ad=0.1 pd=0.9 as=0.2 ps=1.8 w=0.5 l=0.15
X55 a_5970_4630.t3 opamp_cell_4_0.p_bias.t10 VDDA.t125 VDDA.t124 sky130_fd_pr__pfet_01v8 ad=0.625 pd=3 as=0.625 ps=3 w=2.5 l=0.5
X56 a_1390_1400.t1 pfd_8_0.E.t3 pfd_8_0.E_b.t2 VDDA.t58 sky130_fd_pr__pfet_01v8 ad=0.4 pd=2.4 as=0.8 ps=4.8 w=2 l=0.15
X57 pfd_8_0.DOWN_input.t2 pfd_8_0.DOWN.t3 I_IN.t5 GNDA.t41 sky130_fd_pr__nfet_01v8 ad=0.5 pd=3 as=0.5 ps=3 w=1 l=0.15
X58 a_870_640.t1 pfd_8_0.QB_b.t3 VDDA.t10 VDDA.t9 sky130_fd_pr__pfet_01v8 ad=0.4 pd=2.4 as=0.8 ps=4.8 w=2 l=0.15
X59 I_IN.t2 I_IN.t1 GNDA.t154 GNDA.t153 sky130_fd_pr__nfet_01v8 ad=0.5 pd=2.5 as=0.5 ps=2.5 w=2 l=0.6
X60 VCO_FD_magic_0.div120_2_0.div5_2_0.F.t1 F_VCO.t3 VCO_FD_magic_0.div120_2_0.div5_2_0.G.t2 VDDA.t195 sky130_fd_pr__pfet_01v8 ad=0.1 pd=0.9 as=0.2 ps=1.8 w=0.5 l=0.15
X61 VDDA.t176 VDDA.t173 VDDA.t175 VDDA.t174 sky130_fd_pr__pfet_01v8 ad=0.5 pd=3 as=0 ps=0 w=1 l=0.15
X62 VDDA.t116 a_2530_190.t2 a_2200_190.t1 VDDA.t115 sky130_fd_pr__pfet_01v8 ad=0.8 pd=4.8 as=0.8 ps=4.8 w=2 l=0.15
X63 pfd_8_0.opamp_out.t11 a_9360_3514.t0 sky130_fd_pr__cap_mim_m3_1 l=10 w=10
X64 VCO_FD_magic_0.div120_2_0.div5_2_0.B.t1 VCO_FD_magic_0.div120_2_0.div5_2_0.A.t4 VDDA.t189 VDDA.t188 sky130_fd_pr__pfet_01v8 ad=0.2 pd=1.8 as=0.1 ps=0.9 w=0.5 l=0.15
X65 GNDA.t226 GNDA.t224 GNDA.t226 GNDA.t225 sky130_fd_pr__nfet_01v8 ad=0.3125 pd=1.75 as=0 ps=0 w=1.25 l=0.5
X66 GNDA.t223 GNDA.t220 GNDA.t222 GNDA.t221 sky130_fd_pr__nfet_01v8 ad=0.25 pd=2 as=0 ps=0 w=0.5 l=0.15
X67 opamp_cell_4_0.p_bias.t6 opamp_cell_4_0.p_bias.t5 VDDA.t4 VDDA.t3 sky130_fd_pr__pfet_01v8 ad=0.625 pd=3 as=0.625 ps=3 w=2.5 l=0.5
X68 VCO_FD_magic_0.vco2_3_0.V1.t2 V_CONT.t10 GNDA.t5 GNDA.t4 sky130_fd_pr__nfet_01v8 ad=0.4 pd=2.8 as=0.4 ps=2.8 w=1 l=0.15
X69 VCO_FD_magic_0.vco2_3_0.V8.t1 VCO_FD_magic_0.vco2_3_0.V9.t2 VCO_FD_magic_0.vco2_3_0.V4.t1 VDDA.t42 sky130_fd_pr__pfet_01v8 ad=0.4 pd=2.8 as=0.4 ps=2.8 w=1 l=0.15
X70 V_CONT.t5 pfd_8_0.UP_input.t5 VDDA.t135 VDDA.t134 sky130_fd_pr__pfet_01v8 ad=0.5 pd=2.5 as=0.5 ps=2.5 w=2 l=0.6
X71 VDDA.t172 VDDA.t170 VDDA.t172 VDDA.t171 sky130_fd_pr__pfet_01v8 ad=0.5 pd=2.5 as=0 ps=0 w=2 l=0.6
X72 V_OSC.t1 VCO_FD_magic_0.vco2_3_0.V8.t2 VCO_FD_magic_0.vco2_3_0.V3.t0 GNDA.t26 sky130_fd_pr__nfet_01v8 ad=0.2 pd=1.8 as=0.2 ps=1.8 w=0.5 l=0.15
X73 GNDA.t219 GNDA.t216 GNDA.t218 GNDA.t217 sky130_fd_pr__nfet_01v8 ad=1 pd=5 as=0 ps=0 w=2 l=0.6
X74 pfd_8_0.F.t1 pfd_8_0.QB_b.t4 GNDA.t33 GNDA.t32 sky130_fd_pr__nfet_01v8 ad=0.2 pd=1.4 as=0.4 ps=2.8 w=1 l=0.15
X75 GNDA.t77 a_2530_190.t3 a_2200_190.t0 GNDA.t76 sky130_fd_pr__nfet_01v8 ad=0.4 pd=2.8 as=0.4 ps=2.8 w=1 l=0.15
X76 pfd_8_0.DOWN_input.t1 pfd_8_0.DOWN_b.t5 GNDA.t114 GNDA.t113 sky130_fd_pr__nfet_01v8 ad=0.5 pd=3 as=0.5 ps=3 w=1 l=0.15
X77 GNDA.t47 VCO_FD_magic_0.div120_2_0.div24.t5 VCO_FD_magic_0.div120_2_0.div5_2_0.D.t2 GNDA.t46 sky130_fd_pr__nfet_01v8 ad=0.1 pd=0.9 as=0.1 ps=0.9 w=0.5 l=0.15
X78 GNDA.t248 VCO_FD_magic_0.div120_2_0.div2_4_2.C.t4 VCO_FD_magic_0.div120_2_0.div4.t1 GNDA.t247 sky130_fd_pr__nfet_01v8 ad=0.1 pd=0.9 as=0.2 ps=1.8 w=0.5 l=0.15
X79 GNDA.t215 GNDA.t212 GNDA.t214 GNDA.t213 sky130_fd_pr__nfet_01v8 ad=0.625 pd=3.5 as=0 ps=0 w=1.25 l=0.5
X80 VDDA.t57 a_8930_n1440.t4 VCO_FD_magic_0.div120_2_0.div2.t0 VDDA.t56 sky130_fd_pr__pfet_01v8 ad=0.2 pd=1.8 as=0.2 ps=1.8 w=0.5 l=0.15
X81 VCO_FD_magic_0.div120_2_0.div2_4_1.B.t0 a_8930_n1440.t5 VCO_FD_magic_0.div120_2_0.div2_4_1.A.t0 GNDA.t133 sky130_fd_pr__nfet_01v8 ad=0.1 pd=0.9 as=0.2 ps=1.8 w=0.5 l=0.15
X82 VCO_FD_magic_0.div120_2_0.div3_3_0.G.t0 VCO_FD_magic_0.div120_2_0.div3_3_0.I.t2 GNDA.t7 GNDA.t6 sky130_fd_pr__nfet_01v8 ad=0.1 pd=0.9 as=0.2 ps=1.8 w=0.5 l=0.15
X83 GNDA.t1 pfd_8_0.E_b.t3 pfd_8_0.E.t0 GNDA.t0 sky130_fd_pr__nfet_01v8 ad=0.4 pd=2.8 as=0.2 ps=1.4 w=1 l=0.15
X84 pfd_8_0.UP_b.t2 pfd_8_0.UP.t3 GNDA.t52 GNDA.t51 sky130_fd_pr__nfet_01v8 ad=0.5 pd=3 as=0.5 ps=3 w=1 l=0.15
X85 GNDA.t27 VDDA.t222 VCO_FD_magic_0.vco2_3_0.V3.t2 GNDA.t26 sky130_fd_pr__nfet_01v8 ad=0.2 pd=1.8 as=0.2 ps=1.8 w=0.5 l=0.15
X86 GNDA.t116 VCO_FD_magic_0.div120_2_0.div5_2_0.Q2_b.t4 VCO_FD_magic_0.div120_2_0.div5_2_0.M.t2 GNDA.t115 sky130_fd_pr__nfet_01v8 ad=0.1 pd=0.9 as=0.1 ps=0.9 w=0.5 l=0.15
X87 pfd_8_0.opamp_out.t12 a_9360_6440.t0 sky130_fd_pr__cap_mim_m3_1 l=10 w=10
X88 VCO_FD_magic_0.div120_2_0.div2_4_0.A.t1 VCO_FD_magic_0.div120_2_0.div8.t4 VDDA.t94 VDDA.t93 sky130_fd_pr__pfet_01v8 ad=0.2 pd=1.8 as=0.1 ps=0.9 w=0.5 l=0.15
X89 GNDA.t135 a_6220_5810.t10 a_6320_5840.t7 GNDA.t134 sky130_fd_pr__nfet_01v8 ad=0.3125 pd=1.75 as=0.3125 ps=1.75 w=1.25 l=0.5
X90 a_1390_640.t1 pfd_8_0.F.t3 pfd_8_0.F_b.t1 VDDA.t58 sky130_fd_pr__pfet_01v8 ad=0.4 pd=2.4 as=0.8 ps=4.8 w=2 l=0.15
X91 GNDA.t211 GNDA.t208 GNDA.t210 GNDA.t209 sky130_fd_pr__nfet_01v8 ad=1 pd=5 as=0 ps=0 w=2 l=0.6
X92 GNDA.t259 F_VCO.t4 VCO_FD_magic_0.div120_2_0.div5_2_0.L.t1 GNDA.t258 sky130_fd_pr__nfet_01v8 ad=0.2 pd=1.8 as=0.1 ps=0.9 w=0.5 l=0.15
X93 VDDA.t16 VCO_FD_magic_0.div120_2_0.div3_3_0.I.t3 VCO_FD_magic_0.div120_2_0.div3_3_0.E.t0 VDDA.t15 sky130_fd_pr__pfet_01v8 ad=0.1 pd=0.9 as=0.2 ps=1.8 w=0.5 l=0.15
X94 a_2350_1400.t1 pfd_8_0.before_Reset.t4 VDDA.t207 VDDA.t206 sky130_fd_pr__pfet_01v8 ad=0.8 pd=4.8 as=0.8 ps=4.8 w=2 l=0.15
X95 VCO_FD_magic_0.div120_2_0.div5_2_0.K.t1 F_VCO.t5 VDDA.t211 VDDA.t210 sky130_fd_pr__pfet_01v8 ad=0.2 pd=1.8 as=0.1 ps=0.9 w=0.5 l=0.15
X96 GNDA.t240 a_6220_5810.t5 a_6220_5810.t6 GNDA.t239 sky130_fd_pr__nfet_01v8 ad=0.3125 pd=1.75 as=0.3125 ps=1.75 w=1.25 l=0.5
X97 GNDA.t207 GNDA.t204 GNDA.t206 GNDA.t205 sky130_fd_pr__nfet_01v8 ad=1 pd=5 as=0 ps=0 w=2 l=0.6
X98 VDDA.t6 VCO_FD_magic_0.div120_2_0.div2_4_2.A.t2 VCO_FD_magic_0.div120_2_0.div2_4_2.C.t3 VDDA.t5 sky130_fd_pr__pfet_01v8 ad=0.1 pd=0.9 as=0.2 ps=1.8 w=0.5 l=0.15
X99 GNDA.t203 GNDA.t201 GNDA.t203 GNDA.t202 sky130_fd_pr__nfet_01v8 ad=0.125 pd=1 as=0 ps=0 w=0.5 l=0.15
X100 a_5970_4630.t11 a_5970_4630.t10 a_5970_4630.t11 VDDA.t148 sky130_fd_pr__pfet_01v8 ad=0.25 pd=1.5 as=0 ps=0 w=1 l=0.15
X101 VDDA.t65 pfd_8_0.UP_input.t6 V_CONT.t2 VDDA.t64 sky130_fd_pr__pfet_01v8 ad=0.5 pd=2.5 as=0.5 ps=2.5 w=2 l=0.6
X102 pfd_8_0.F_b.t2 pfd_8_0.F.t4 GNDA.t265 GNDA.t264 sky130_fd_pr__nfet_01v8 ad=0.2 pd=1.4 as=0.4 ps=2.8 w=1 l=0.15
X103 VDDA.t79 pfd_8_0.F.t5 a_490_640.t1 VDDA.t49 sky130_fd_pr__pfet_01v8 ad=0.8 pd=4.8 as=0.4 ps=2.4 w=2 l=0.15
X104 VDDA.t169 VDDA.t167 VDDA.t169 VDDA.t168 sky130_fd_pr__pfet_01v8 ad=0.25 pd=1.5 as=0 ps=0 w=1 l=0.15
X105 pfd_8_0.QA_b.t1 pfd_8_0.QA.t4 a_n30_1400.t1 VDDA.t28 sky130_fd_pr__pfet_01v8 ad=0.8 pd=4.8 as=0.4 ps=2.4 w=2 l=0.15
X106 GNDA.t200 GNDA.t198 GNDA.t200 GNDA.t199 sky130_fd_pr__nfet_01v8 ad=0.125 pd=1 as=0 ps=0 w=0.5 l=0.15
X107 GNDA.t178 VCO_FD_magic_0.div120_2_0.div8.t5 VCO_FD_magic_0.div120_2_0.div2_4_0.B.t1 GNDA.t177 sky130_fd_pr__nfet_01v8 ad=0.1 pd=0.9 as=0.1 ps=0.9 w=0.5 l=0.15
X108 GNDA.t132 VCO_FD_magic_0.div120_2_0.div24.t6 VCO_FD_magic_0.div120_2_0.div5_2_0.J.t2 GNDA.t131 sky130_fd_pr__nfet_01v8 ad=0.1 pd=0.9 as=0.1 ps=0.9 w=0.5 l=0.15
X109 GNDA.t250 pfd_8_0.F.t6 pfd_8_0.QB.t1 GNDA.t249 sky130_fd_pr__nfet_01v8 ad=0.4 pd=2.8 as=0.2 ps=1.4 w=1 l=0.15
X110 GNDA.t244 VCO_FD_magic_0.div120_2_0.div3_3_0.CLK.t5 VCO_FD_magic_0.div120_2_0.div3_3_0.H.t3 GNDA.t243 sky130_fd_pr__nfet_01v8 ad=0.1 pd=0.9 as=0.1 ps=0.9 w=0.5 l=0.15
X111 pfd_8_0.before_Reset.t0 pfd_8_0.QB.t4 VDDA.t18 VDDA.t17 sky130_fd_pr__pfet_01v8 ad=0.4 pd=2.4 as=0.805 ps=5 w=2 l=0.15
X112 GNDA.t179 V_CONT.t11 VCO_FD_magic_0.vco2_3_0.V7.t1 GNDA.t45 sky130_fd_pr__nfet_01v8 ad=0.4 pd=2.8 as=0.4 ps=2.8 w=1 l=0.15
X113 GNDA.t49 VDDA.t223 VCO_FD_magic_0.vco2_3_0.V5.t2 GNDA.t48 sky130_fd_pr__nfet_01v8 ad=0.2 pd=1.8 as=0.2 ps=1.8 w=0.5 l=0.15
X114 VDDA.t185 VCO_FD_magic_0.vco2_3_0.V1.t4 VCO_FD_magic_0.vco2_3_0.V2.t0 VDDA.t184 sky130_fd_pr__pfet_01v8 ad=0.8 pd=4.8 as=0.8 ps=4.8 w=2 l=1.5
X115 VDDA.t100 VCO_FD_magic_0.div120_2_0.div24.t7 VCO_FD_magic_0.div120_2_0.div5_2_0.E.t0 VDDA.t99 sky130_fd_pr__pfet_01v8 ad=0.2 pd=1.8 as=0.2 ps=1.8 w=0.5 l=0.15
X116 VDDA.t1 VCO_FD_magic_0.div120_2_0.div24.t8 VCO_FD_magic_0.div120_2_0.div5_2_0.Q2_b.t0 VDDA.t0 sky130_fd_pr__pfet_01v8 ad=0.1 pd=0.9 as=0.2 ps=1.8 w=0.5 l=0.15
X117 GNDA.t44 a_6490_4630.t6 pfd_8_0.opamp_out.t3 GNDA.t43 sky130_fd_pr__nfet_01v8 ad=0.125 pd=1 as=0.125 ps=1 w=0.5 l=0.15
X118 VDDA.t102 opamp_cell_4_0.n_right.t6 pfd_8_0.opamp_out.t5 VDDA.t101 sky130_fd_pr__pfet_01v8 ad=0.25 pd=1.5 as=0.25 ps=1.5 w=1 l=0.15
X119 opamp_cell_4_0.VIN+.t4 pfd_8_0.opamp_out.t13 VDDA.t72 VDDA.t71 sky130_fd_pr__pfet_01v8 ad=0.5 pd=2.5 as=0.5 ps=2.5 w=2 l=0.6
X120 VDDA.t201 VCO_FD_magic_0.div120_2_0.div3_3_0.CLK.t6 VCO_FD_magic_0.div120_2_0.div3_3_0.I.t1 VDDA.t200 sky130_fd_pr__pfet_01v8 ad=0.1 pd=0.9 as=0.2 ps=1.8 w=0.5 l=0.15
X121 a_490_1400.t0 pfd_8_0.QA_b.t5 pfd_8_0.QA.t1 VDDA.t114 sky130_fd_pr__pfet_01v8 ad=0.4 pd=2.4 as=0.8 ps=4.8 w=2 l=0.15
X122 pfd_8_0.UP_input.t2 pfd_8_0.UP_b.t3 pfd_8_0.opamp_out.t0 VDDA.t68 sky130_fd_pr__pfet_01v8 ad=1 pd=5 as=1 ps=5 w=2 l=0.15
X123 V_CONT.t4 pfd_8_0.UP_input.t7 VDDA.t131 VDDA.t130 sky130_fd_pr__pfet_01v8 ad=0.5 pd=2.5 as=0.5 ps=2.5 w=2 l=0.6
X124 VDDA.t143 GNDA.t272 VCO_FD_magic_0.vco2_3_0.V2.t2 VDDA.t2 sky130_fd_pr__pfet_01v8 ad=0.4 pd=2.8 as=0.4 ps=2.8 w=1 l=0.15
X125 GNDA.t79 pfd_8_0.Reset.t2 pfd_8_0.E_b.t0 GNDA.t78 sky130_fd_pr__nfet_01v8 ad=0.4 pd=2.8 as=0.2 ps=1.4 w=1 l=0.15
X126 GNDA.t162 VCO_FD_magic_0.div120_2_0.div2_4_1.C.t4 VCO_FD_magic_0.div120_2_0.div2.t1 GNDA.t161 sky130_fd_pr__nfet_01v8 ad=0.1 pd=0.9 as=0.2 ps=1.8 w=0.5 l=0.15
X127 GNDA.t255 VCO_FD_magic_0.div120_2_0.div3_3_0.I.t4 VCO_FD_magic_0.div120_2_0.div24.t1 GNDA.t254 sky130_fd_pr__nfet_01v8 ad=0.2 pd=1.8 as=0.2 ps=1.8 w=0.5 l=0.15
X128 VCO_FD_magic_0.vco2_3_0.V9.t1 V_OSC.t4 VCO_FD_magic_0.vco2_3_0.V7.t0 GNDA.t45 sky130_fd_pr__nfet_01v8 ad=0.2 pd=1.8 as=0.2 ps=1.8 w=0.5 l=0.15
X129 VCO_FD_magic_0.div120_2_0.div2_4_0.C.t2 a_6330_n1440.t3 GNDA.t242 GNDA.t241 sky130_fd_pr__nfet_01v8 ad=0.2 pd=1.8 as=0.1 ps=0.9 w=0.5 l=0.15
X130 a_2530_190.t0 a_2350_1400.t2 GNDA.t148 GNDA.t147 sky130_fd_pr__nfet_01v8 ad=0.4 pd=2.8 as=0.4 ps=2.8 w=1 l=0.15
X131 VDDA.t76 opamp_cell_4_0.n_left.t2 opamp_cell_4_0.n_left.t3 VDDA.t75 sky130_fd_pr__pfet_01v8 ad=0.25 pd=1.5 as=0.25 ps=1.5 w=1 l=0.15
X132 VCO_FD_magic_0.div120_2_0.div24.t0 VCO_FD_magic_0.div120_2_0.div3_3_0.I.t5 VDDA.t92 VDDA.t91 sky130_fd_pr__pfet_01v8 ad=0.1 pd=0.9 as=0.2 ps=1.8 w=0.5 l=0.15
X133 a_6320_5840.t10 V_CONT.t12 opamp_cell_4_0.n_left.t5 GNDA.t112 sky130_fd_pr__nfet_01v8 ad=0.125 pd=1 as=0.125 ps=1 w=0.5 l=0.15
X134 a_7630_n1440.t2 VCO_FD_magic_0.div120_2_0.div2.t3 VDDA.t194 VDDA.t193 sky130_fd_pr__pfet_01v8 ad=0.2 pd=1.8 as=0.1 ps=0.9 w=0.5 l=0.15
X135 VDDA.t215 VCO_FD_magic_0.div120_2_0.div3_3_0.I.t6 VCO_FD_magic_0.div120_2_0.div24.t2 VDDA.t214 sky130_fd_pr__pfet_01v8 ad=0.2 pd=1.8 as=0.1 ps=0.9 w=0.5 l=0.15
X136 VCO_FD_magic_0.div120_2_0.div3_3_0.C.t1 VCO_FD_magic_0.div120_2_0.div3_3_0.CLK.t7 GNDA.t261 GNDA.t260 sky130_fd_pr__nfet_01v8 ad=0.2 pd=1.8 as=0.1 ps=0.9 w=0.5 l=0.15
X137 GNDA.t170 VCO_FD_magic_0.div120_2_0.div24.t9 VCO_FD_magic_0.div120_2_0.div3_3_0.B.t0 GNDA.t169 sky130_fd_pr__nfet_01v8 ad=0.1 pd=0.9 as=0.1 ps=0.9 w=0.5 l=0.15
X138 pfd_8_0.E.t1 pfd_8_0.E_b.t4 a_870_1400.t0 VDDA.t33 sky130_fd_pr__pfet_01v8 ad=0.8 pd=4.8 as=0.4 ps=2.4 w=2 l=0.15
X139 pfd_8_0.UP_b.t0 pfd_8_0.UP.t4 VDDA.t19 VDDA.t11 sky130_fd_pr__pfet_01v8 ad=1 pd=5 as=1 ps=5 w=2 l=0.15
X140 VCO_FD_magic_0.div120_2_0.div5_2_0.H.t1 VCO_FD_magic_0.div120_2_0.div5_2_0.Q2_b.t5 VCO_FD_magic_0.div120_2_0.div5_2_0.I.t1 GNDA.t253 sky130_fd_pr__nfet_01v8 ad=0.1 pd=0.9 as=0.1 ps=0.9 w=0.5 l=0.15
X141 pfd_8_0.DOWN_input.t3 pfd_8_0.DOWN.t2 sky130_fd_pr__cap_mim_m3_1 l=3.8 w=2.7
X142 VDDA.t107 V_OSC.t5 a_8930_n1440.t2 VDDA.t106 sky130_fd_pr__pfet_01v8 ad=0.1 pd=0.9 as=0.2 ps=1.8 w=0.5 l=0.15
X143 VDDA.t133 VCO_FD_magic_0.div120_2_0.div8.t6 VCO_FD_magic_0.div120_2_0.div3_3_0.CLK.t1 VDDA.t132 sky130_fd_pr__pfet_01v8 ad=0.1 pd=0.9 as=0.2 ps=1.8 w=0.5 l=0.15
X144 VCO_FD_magic_0.div120_2_0.div5_2_0.C.t0 VCO_FD_magic_0.div120_2_0.div24.t10 VCO_FD_magic_0.div120_2_0.div5_2_0.B.t0 GNDA.t144 sky130_fd_pr__nfet_01v8 ad=0.1 pd=0.9 as=0.2 ps=1.8 w=0.5 l=0.15
X145 a_5970_4630.t9 a_5970_4630.t7 a_5970_4630.t8 VDDA.t147 sky130_fd_pr__pfet_01v8 ad=0.5 pd=3 as=0 ps=0 w=1 l=0.15
X146 VCO_FD_magic_0.div120_2_0.div2_4_0.C.t1 a_6330_n1440.t4 GNDA.t128 GNDA.t127 sky130_fd_pr__nfet_01v8 ad=0.1 pd=0.9 as=0.1 ps=0.9 w=0.5 l=0.15
X147 GNDA.t197 GNDA.t194 GNDA.t196 GNDA.t195 sky130_fd_pr__nfet_01v8 ad=0.25 pd=2 as=0 ps=0 w=0.5 l=0.15
X148 VDDA.t25 a_1870_190.t2 pfd_8_0.Reset.t1 VDDA.t24 sky130_fd_pr__pfet_01v8 ad=0.8 pd=4.8 as=0.8 ps=4.8 w=2 l=0.15
X149 pfd_8_0.opamp_out.t6 a_6490_4630.t7 GNDA.t126 GNDA.t125 sky130_fd_pr__nfet_01v8 ad=0.125 pd=1 as=0.125 ps=1 w=0.5 l=0.15
X150 pfd_8_0.opamp_out.t7 opamp_cell_4_0.n_right.t7 VDDA.t118 VDDA.t117 sky130_fd_pr__pfet_01v8 ad=0.25 pd=1.5 as=0.25 ps=1.5 w=1 l=0.15
X151 VCO_FD_magic_0.div120_2_0.div5_2_0.G.t1 VCO_FD_magic_0.div120_2_0.div5_2_0.Q2_b.t6 VDDA.t70 VDDA.t69 sky130_fd_pr__pfet_01v8 ad=0.2 pd=1.8 as=0.1 ps=0.9 w=0.5 l=0.15
X152 GNDA.t103 VCO_FD_magic_0.div120_2_0.div4.t3 VCO_FD_magic_0.div120_2_0.div2_4_2.B.t1 GNDA.t102 sky130_fd_pr__nfet_01v8 ad=0.1 pd=0.9 as=0.1 ps=0.9 w=0.5 l=0.15
X153 VDDA.t121 VCO_FD_magic_0.div120_2_0.div5_2_0.B.t2 VCO_FD_magic_0.div120_2_0.div5_2_0.D.t3 VDDA.t120 sky130_fd_pr__pfet_01v8 ad=0.1 pd=0.9 as=0.2 ps=1.8 w=0.5 l=0.15
X154 VDDA.t87 a_7630_n1440.t5 VCO_FD_magic_0.div120_2_0.div4.t0 VDDA.t86 sky130_fd_pr__pfet_01v8 ad=0.2 pd=1.8 as=0.2 ps=1.8 w=0.5 l=0.15
X155 VCO_FD_magic_0.div120_2_0.div2_4_0.B.t0 a_6330_n1440.t5 VCO_FD_magic_0.div120_2_0.div2_4_0.A.t0 GNDA.t84 sky130_fd_pr__nfet_01v8 ad=0.1 pd=0.9 as=0.2 ps=1.8 w=0.5 l=0.15
X156 GNDA.t35 a_1870_190.t3 pfd_8_0.Reset.t0 GNDA.t34 sky130_fd_pr__nfet_01v8 ad=0.4 pd=2.8 as=0.4 ps=2.8 w=1 l=0.15
X157 V_OSC.t0 VCO_FD_magic_0.vco2_3_0.V8.t3 VCO_FD_magic_0.vco2_3_0.V2.t1 VDDA.t2 sky130_fd_pr__pfet_01v8 ad=0.4 pd=2.8 as=0.4 ps=2.8 w=1 l=0.15
X158 VCO_FD_magic_0.div120_2_0.div2_4_1.A.t1 VCO_FD_magic_0.div120_2_0.div2.t4 VDDA.t205 VDDA.t204 sky130_fd_pr__pfet_01v8 ad=0.2 pd=1.8 as=0.1 ps=0.9 w=0.5 l=0.15
X159 VCO_FD_magic_0.div120_2_0.div3_3_0.A.t0 VCO_FD_magic_0.div120_2_0.div24.t11 VDDA.t123 VDDA.t122 sky130_fd_pr__pfet_01v8 ad=0.2 pd=1.8 as=0.1 ps=0.9 w=0.5 l=0.15
X160 VDDA.t166 VDDA.t163 VDDA.t165 VDDA.t164 sky130_fd_pr__pfet_01v8 ad=1 pd=5 as=0 ps=0 w=2 l=0.6
X161 VCO_FD_magic_0.div120_2_0.div5_2_0.D.t1 VCO_FD_magic_0.div120_2_0.div24.t12 GNDA.t17 GNDA.t16 sky130_fd_pr__nfet_01v8 ad=0.1 pd=0.9 as=0.1 ps=0.9 w=0.5 l=0.15
X162 opamp_cell_4_0.p_bias.t4 opamp_cell_4_0.p_bias.t3 VDDA.t191 VDDA.t190 sky130_fd_pr__pfet_01v8 ad=0.625 pd=3 as=0.625 ps=3 w=2.5 l=0.5
X163 opamp_cell_4_0.p_bias.t0 a_6220_5810.t0 GNDA.t38 sky130_fd_pr__res_xhigh_po_5p73 l=1
X164 VDDA.t44 VCO_FD_magic_0.vco2_3_0.V1.t5 VCO_FD_magic_0.vco2_3_0.V6.t1 VDDA.t43 sky130_fd_pr__pfet_01v8 ad=0.8 pd=4.8 as=0.8 ps=4.8 w=2 l=1.5
X165 GNDA.t109 VCO_FD_magic_0.div120_2_0.div3_3_0.C.t4 VCO_FD_magic_0.div120_2_0.div3_3_0.D.t1 GNDA.t108 sky130_fd_pr__nfet_01v8 ad=0.1 pd=0.9 as=0.2 ps=1.8 w=0.5 l=0.15
X166 VCO_FD_magic_0.div120_2_0.div3_3_0.E.t1 VCO_FD_magic_0.div120_2_0.div3_3_0.CLK.t8 VCO_FD_magic_0.div120_2_0.div3_3_0.F.t0 GNDA.t93 sky130_fd_pr__nfet_01v8 ad=0.2 pd=1.8 as=0.1 ps=0.9 w=0.5 l=0.15
X167 opamp_cell_4_0.n_left.t1 opamp_cell_4_0.n_left.t0 VDDA.t111 VDDA.t110 sky130_fd_pr__pfet_01v8 ad=0.25 pd=1.5 as=0.25 ps=1.5 w=1 l=0.15
X168 GNDA.t65 VCO_FD_magic_0.div120_2_0.div5_2_0.M.t4 F_VCO.t1 GNDA.t64 sky130_fd_pr__nfet_01v8 ad=0.1 pd=0.9 as=0.2 ps=1.8 w=0.5 l=0.15
X169 GNDA.t273 V_CONT.t6 sky130_fd_pr__cap_mim_m3_1 l=70 w=14
X170 opamp_cell_4_0.n_left.t4 V_CONT.t13 a_6320_5840.t9 GNDA.t175 sky130_fd_pr__nfet_01v8 ad=0.125 pd=1 as=0.125 ps=1 w=0.5 l=0.15
X171 VCO_FD_magic_0.div120_2_0.div5_2_0.L.t0 VCO_FD_magic_0.div120_2_0.div5_2_0.Q2_b.t7 VCO_FD_magic_0.div120_2_0.div5_2_0.K.t0 GNDA.t98 sky130_fd_pr__nfet_01v8 ad=0.1 pd=0.9 as=0.2 ps=1.8 w=0.5 l=0.15
X172 VDDA.t203 VCO_FD_magic_0.div120_2_0.div2_4_0.A.t2 VCO_FD_magic_0.div120_2_0.div2_4_0.C.t3 VDDA.t202 sky130_fd_pr__pfet_01v8 ad=0.1 pd=0.9 as=0.2 ps=1.8 w=0.5 l=0.15
X173 a_5970_4630.t4 opamp_cell_4_0.p_bias.t11 VDDA.t141 VDDA.t140 sky130_fd_pr__pfet_01v8 ad=0.625 pd=3 as=0.625 ps=3 w=2.5 l=0.5
X174 pfd_8_0.before_Reset.t1 pfd_8_0.QA.t5 a_1910_2020.t1 GNDA.t53 sky130_fd_pr__nfet_01v8 ad=0.4 pd=2.8 as=0.2 ps=1.4 w=1 l=0.15
X175 pfd_8_0.UP_PFD_b.t0 pfd_8_0.QA.t6 GNDA.t40 GNDA.t39 sky130_fd_pr__nfet_01v8 ad=0.5 pd=3 as=0.5 ps=3 w=1 l=0.15
X176 VDDA.t142 GNDA.t274 VCO_FD_magic_0.vco2_3_0.V6.t2 VDDA.t119 sky130_fd_pr__pfet_01v8 ad=0.4 pd=2.8 as=0.4 ps=2.8 w=1 l=0.15
X177 VCO_FD_magic_0.div120_2_0.div2_4_2.C.t1 a_7630_n1440.t6 GNDA.t234 GNDA.t233 sky130_fd_pr__nfet_01v8 ad=0.2 pd=1.8 as=0.1 ps=0.9 w=0.5 l=0.15
X178 GNDA.t130 pfd_8_0.E.t4 pfd_8_0.QA.t0 GNDA.t129 sky130_fd_pr__nfet_01v8 ad=0.4 pd=2.8 as=0.2 ps=1.4 w=1 l=0.15
X179 VDDA.t60 VCO_FD_magic_0.div120_2_0.div5_2_0.K.t2 VCO_FD_magic_0.div120_2_0.div5_2_0.M.t3 VDDA.t59 sky130_fd_pr__pfet_01v8 ad=0.1 pd=0.9 as=0.2 ps=1.8 w=0.5 l=0.15
X180 a_9360_6440.t1 a_6490_4630.t4 GNDA.t176 sky130_fd_pr__res_xhigh_po_0p35 l=0.86
X181 VDDA.t162 VDDA.t160 VDDA.t162 VDDA.t161 sky130_fd_pr__pfet_01v8 ad=0.625 pd=3 as=0 ps=0 w=2.5 l=0.5
X182 VDDA.t63 pfd_8_0.Reset.t3 a_1390_1400.t0 VDDA.t61 sky130_fd_pr__pfet_01v8 ad=0.8 pd=4.8 as=0.4 ps=2.4 w=2 l=0.15
X183 pfd_8_0.F.t0 pfd_8_0.F_b.t3 a_870_640.t0 VDDA.t33 sky130_fd_pr__pfet_01v8 ad=0.8 pd=4.8 as=0.4 ps=2.4 w=2 l=0.15
X184 a_2530_190.t1 a_2350_1400.t3 VDDA.t197 VDDA.t196 sky130_fd_pr__pfet_01v8 ad=0.8 pd=4.8 as=0.8 ps=4.8 w=2 l=0.15
X185 GNDA.t193 GNDA.t191 GNDA.t193 GNDA.t192 sky130_fd_pr__nfet_01v8 ad=0.5 pd=2.5 as=0 ps=0 w=2 l=0.6
X186 GNDA.t95 a_6220_5810.t3 a_6220_5810.t4 GNDA.t94 sky130_fd_pr__nfet_01v8 ad=0.3125 pd=1.75 as=0.3125 ps=1.75 w=1.25 l=0.5
X187 GNDA.t167 a_6490_4630.t8 pfd_8_0.opamp_out.t8 GNDA.t166 sky130_fd_pr__nfet_01v8 ad=0.125 pd=1 as=0.125 ps=1 w=0.5 l=0.15
X188 VDDA.t139 opamp_cell_4_0.n_right.t8 pfd_8_0.opamp_out.t9 VDDA.t138 sky130_fd_pr__pfet_01v8 ad=0.25 pd=1.5 as=0.25 ps=1.5 w=1 l=0.15
X189 VDDA.t159 VDDA.t156 VDDA.t158 VDDA.t157 sky130_fd_pr__pfet_01v8 ad=1.25 pd=6 as=0 ps=0 w=2.5 l=0.5
X190 GNDA.t156 a_8930_n1440.t6 VCO_FD_magic_0.div120_2_0.div2_4_1.C.t1 GNDA.t155 sky130_fd_pr__nfet_01v8 ad=0.1 pd=0.9 as=0.1 ps=0.9 w=0.5 l=0.15
X191 GNDA.t164 pfd_8_0.F_b.t4 pfd_8_0.F.t2 GNDA.t163 sky130_fd_pr__nfet_01v8 ad=0.4 pd=2.8 as=0.2 ps=1.4 w=1 l=0.15
X192 VCO_FD_magic_0.div120_2_0.div5_2_0.J.t3 VCO_FD_magic_0.div120_2_0.div24.t13 GNDA.t143 GNDA.t142 sky130_fd_pr__nfet_01v8 ad=0.1 pd=0.9 as=0.1 ps=0.9 w=0.5 l=0.15
X193 GNDA.t263 a_6220_5810.t11 a_6320_5840.t12 GNDA.t262 sky130_fd_pr__nfet_01v8 ad=0.3125 pd=1.75 as=0.3125 ps=1.75 w=1.25 l=0.5
X194 pfd_8_0.QB_b.t1 pfd_8_0.QB.t5 a_n30_640.t0 VDDA.t28 sky130_fd_pr__pfet_01v8 ad=0.8 pd=4.8 as=0.4 ps=2.4 w=2 l=0.15
X195 VCO_FD_magic_0.div120_2_0.div2_4_2.C.t0 a_7630_n1440.t7 GNDA.t9 GNDA.t8 sky130_fd_pr__nfet_01v8 ad=0.1 pd=0.9 as=0.1 ps=0.9 w=0.5 l=0.15
X196 GNDA.t183 a_6200_5250.t6 a_6490_4630.t3 GNDA.t182 sky130_fd_pr__nfet_01v8 ad=0.125 pd=1 as=0.125 ps=1 w=0.5 l=0.15
X197 a_5970_4630.t0 opamp_cell_4_0.VIN+.t7 a_6490_4630.t1 VDDA.t90 sky130_fd_pr__pfet_01v8 ad=0.25 pd=1.5 as=0.25 ps=1.5 w=1 l=0.15
X198 VDDA.t113 opamp_cell_4_0.p_bias.t12 a_5970_4630.t2 VDDA.t112 sky130_fd_pr__pfet_01v8 ad=0.625 pd=3 as=0.625 ps=3 w=2.5 l=0.5
X199 VCO_FD_magic_0.div120_2_0.div3_3_0.H.t2 VCO_FD_magic_0.div120_2_0.div3_3_0.CLK.t9 GNDA.t107 GNDA.t106 sky130_fd_pr__nfet_01v8 ad=0.1 pd=0.9 as=0.1 ps=0.9 w=0.5 l=0.15
X200 GNDA.t124 VCO_FD_magic_0.div120_2_0.div2.t5 VCO_FD_magic_0.div120_2_0.div2_4_1.B.t1 GNDA.t123 sky130_fd_pr__nfet_01v8 ad=0.1 pd=0.9 as=0.1 ps=0.9 w=0.5 l=0.15
X201 VDDA.t62 pfd_8_0.Reset.t4 a_1390_640.t0 VDDA.t61 sky130_fd_pr__pfet_01v8 ad=0.8 pd=4.8 as=0.4 ps=2.4 w=2 l=0.15
X202 VDDA.t81 opamp_cell_4_0.p_bias.t1 opamp_cell_4_0.p_bias.t2 VDDA.t80 sky130_fd_pr__pfet_01v8 ad=0.625 pd=3 as=0.625 ps=3 w=2.5 l=0.5
X203 opamp_cell_4_0.n_right.t4 a_9360_3514.t1 GNDA.t176 sky130_fd_pr__res_xhigh_po_0p35 l=1.14
X204 pfd_8_0.UP_input.t1 pfd_8_0.UP.t5 VDDA.t96 VDDA.t95 sky130_fd_pr__pfet_01v8 ad=1 pd=5 as=1 ps=5 w=2 l=0.15
X205 VDDA.t155 VDDA.t152 VDDA.t154 VDDA.t153 sky130_fd_pr__pfet_01v8 ad=0.5 pd=3 as=0 ps=0 w=1 l=0.15
X206 a_6320_5840.t6 a_6320_5840.t4 a_6320_5840.t5 GNDA.t88 sky130_fd_pr__nfet_01v8 ad=0.25 pd=2 as=0 ps=0 w=0.5 l=0.15
X207 GNDA.t73 pfd_8_0.QB.t6 pfd_8_0.QB_b.t0 GNDA.t72 sky130_fd_pr__nfet_01v8 ad=0.4 pd=2.8 as=0.2 ps=1.4 w=1 l=0.15
X208 a_6320_5840.t11 a_6220_5810.t12 GNDA.t246 GNDA.t245 sky130_fd_pr__nfet_01v8 ad=0.3125 pd=1.75 as=0.3125 ps=1.75 w=1.25 l=0.5
X209 GNDA.t252 pfd_8_0.Reset.t5 pfd_8_0.F_b.t0 GNDA.t251 sky130_fd_pr__nfet_01v8 ad=0.4 pd=2.8 as=0.2 ps=1.4 w=1 l=0.15
X210 a_6330_n1440.t1 VCO_FD_magic_0.div120_2_0.div4.t4 VDDA.t187 VDDA.t186 sky130_fd_pr__pfet_01v8 ad=0.2 pd=1.8 as=0.1 ps=0.9 w=0.5 l=0.15
X211 VCO_FD_magic_0.vco2_3_0.V9.t0 V_OSC.t6 VCO_FD_magic_0.vco2_3_0.V6.t0 VDDA.t119 sky130_fd_pr__pfet_01v8 ad=0.4 pd=2.8 as=0.4 ps=2.8 w=1 l=0.15
X212 GNDA.t71 pfd_8_0.DOWN_input.t4 V_CONT.t1 GNDA.t70 sky130_fd_pr__nfet_01v8 ad=0.5 pd=2.5 as=0.5 ps=2.5 w=2 l=0.6
X213 a_6320_5840.t3 a_6320_5840.t2 a_6320_5840.t3 GNDA.t99 sky130_fd_pr__nfet_01v8 ad=0.125 pd=1 as=0 ps=0 w=0.5 l=0.15
X214 VDDA.t151 VDDA.t149 VDDA.t151 VDDA.t150 sky130_fd_pr__pfet_01v8 ad=0.25 pd=1.5 as=0 ps=0 w=1 l=0.15
X215 a_6220_5810.t2 a_6220_5810.t1 GNDA.t257 GNDA.t256 sky130_fd_pr__nfet_01v8 ad=0.3125 pd=1.75 as=0.3125 ps=1.75 w=1.25 l=0.5
X216 GNDA.t67 V_CONT.t14 VCO_FD_magic_0.vco2_3_0.V3.t1 GNDA.t26 sky130_fd_pr__nfet_01v8 ad=0.4 pd=2.8 as=0.4 ps=2.8 w=1 l=0.15
X217 VDDA.t213 VCO_FD_magic_0.div120_2_0.div2.t6 a_7630_n1440.t1 VDDA.t212 sky130_fd_pr__pfet_01v8 ad=0.1 pd=0.9 as=0.2 ps=1.8 w=0.5 l=0.15
X218 pfd_8_0.E.t2 pfd_8_0.QA_b.t6 GNDA.t139 GNDA.t138 sky130_fd_pr__nfet_01v8 ad=0.2 pd=1.4 as=0.4 ps=2.8 w=1 l=0.15
X219 GNDA.t160 I_IN.t6 opamp_cell_4_0.VIN+.t1 GNDA.t159 sky130_fd_pr__nfet_01v8 ad=0.5 pd=2.5 as=0.5 ps=2.5 w=2 l=0.6
X220 GNDA.t238 VCO_FD_magic_0.div120_2_0.div3_3_0.CLK.t10 VCO_FD_magic_0.div120_2_0.div3_3_0.C.t0 GNDA.t237 sky130_fd_pr__nfet_01v8 ad=0.1 pd=0.9 as=0.1 ps=0.9 w=0.5 l=0.15
X221 a_6330_n1440.t0 VCO_FD_magic_0.div120_2_0.div4.t5 GNDA.t150 GNDA.t149 sky130_fd_pr__nfet_01v8 ad=0.2 pd=1.8 as=0.1 ps=0.9 w=0.5 l=0.15
X222 VCO_FD_magic_0.div120_2_0.div3_3_0.B.t1 VCO_FD_magic_0.div120_2_0.div3_3_0.CLK.t11 VCO_FD_magic_0.div120_2_0.div3_3_0.A.t1 GNDA.t230 sky130_fd_pr__nfet_01v8 ad=0.1 pd=0.9 as=0.2 ps=1.8 w=0.5 l=0.15