* PEX produced on Mon Feb 24 10:03:28 AM CET 2025 using /foss/tools/osic-multitool/iic-pex.sh with m=3 and s=1
* NGSPICE file created from pfd_cp_lf_magic_3.ext - technology: sky130A

.subckt pfd_cp_lf_magic V_OUT VDDA GNDA F_REF F_VCO I_IN
X0 GNDA.t95 a_6200_5250.t1 a_6200_5250.t2 GNDA.t94 sky130_fd_pr__nfet_01v8 ad=0.125 pd=1 as=0.125 ps=1 w=0.5 l=0.15
X1 a_5970_4630.t6 V_OUT.t8 a_6200_5250.t5 VDDA.t85 sky130_fd_pr__pfet_01v8 ad=0.25 pd=1.5 as=0.25 ps=1.5 w=1 l=0.15
X2 GNDA.t137 GNDA.t135 GNDA.t137 GNDA.t136 sky130_fd_pr__nfet_01v8 ad=0.5 pd=2.5 as=0 ps=0 w=2 l=0.6
X3 pfd_8_0.DOWN_b.t1 VDDA.t130 pfd_8_0.DOWN_PFD_b.t3 GNDA.t34 sky130_fd_pr__nfet_01v8 ad=0.5 pd=3 as=0.5 ps=3 w=1 l=0.15
X4 a_870_1400.t1 pfd_8_0.QA_b.t3 VDDA.t126 VDDA.t20 sky130_fd_pr__pfet_01v8 ad=0.4 pd=2.4 as=0.8 ps=4.8 w=2 l=0.15
X5 pfd_8_0.UP_input.t3 pfd_8_0.UP_b.t1 sky130_fd_pr__cap_mim_m3_1 l=6.3 w=5.2
X6 pfd_8_0.DOWN.t2 pfd_8_0.DOWN_b.t2 VDDA.t55 VDDA.t30 sky130_fd_pr__pfet_01v8 ad=1 pd=5 as=1 ps=5 w=2 l=0.15
X7 VDDA.t27 pfd_8_0.opamp_out.t10 opamp_cell_4_0.VIN+.t4 VDDA.t26 sky130_fd_pr__pfet_01v8 ad=0.5 pd=2.5 as=0.5 ps=2.5 w=2 l=0.6
X8 opamp_cell_4_0.n_right.t1 opamp_cell_4_0.VIN+.t6 a_6320_5840.t8 GNDA.t148 sky130_fd_pr__nfet_01v8 ad=0.125 pd=1 as=0.125 ps=1 w=0.5 l=0.15
X9 opamp_cell_4_0.n_right.t3 opamp_cell_4_0.n_left.t6 VDDA.t71 VDDA.t70 sky130_fd_pr__pfet_01v8 ad=0.25 pd=1.5 as=0.25 ps=1.5 w=1 l=0.15
X10 pfd_8_0.opamp_out.t5 opamp_cell_4_0.n_right.t5 VDDA.t65 VDDA.t64 sky130_fd_pr__pfet_01v8 ad=0.25 pd=1.5 as=0.25 ps=1.5 w=1 l=0.15
X11 pfd_8_0.opamp_out.t9 a_6490_4630.t5 GNDA.t70 GNDA.t69 sky130_fd_pr__nfet_01v8 ad=0.125 pd=1 as=0.125 ps=1 w=0.5 l=0.15
X12 a_2350_1400.t0 pfd_8_0.before_Reset.t3 GNDA.t72 GNDA.t71 sky130_fd_pr__nfet_01v8 ad=0.4 pd=2.8 as=0.4 ps=2.8 w=1 l=0.15
X13 pfd_8_0.DOWN.t1 pfd_8_0.DOWN_b.t3 GNDA.t74 GNDA.t73 sky130_fd_pr__nfet_01v8 ad=0.5 pd=3 as=0.5 ps=3 w=1 l=0.15
X14 VDDA.t46 opamp_cell_4_0.p_bias.t7 opamp_cell_4_0.p_bias.t8 VDDA.t45 sky130_fd_pr__pfet_01v8 ad=0.625 pd=3 as=0.625 ps=3 w=2.5 l=0.5
X15 GNDA.t26 I_IN.t3 I_IN.t4 GNDA.t25 sky130_fd_pr__nfet_01v8 ad=0.5 pd=2.5 as=0.5 ps=2.5 w=2 l=0.6
X16 a_n30_1400.t0 F_REF.t0 VDDA.t129 VDDA.t66 sky130_fd_pr__pfet_01v8 ad=0.4 pd=2.4 as=0.8 ps=4.8 w=2 l=0.15
X17 GNDA.t152 pfd_8_0.QA.t3 pfd_8_0.QA_b.t2 GNDA.t151 sky130_fd_pr__nfet_01v8 ad=0.4 pd=2.8 as=0.2 ps=1.4 w=1 l=0.15
X18 a_6200_5250.t4 a_6200_5250.t3 GNDA.t93 GNDA.t92 sky130_fd_pr__nfet_01v8 ad=0.125 pd=1 as=0.125 ps=1 w=0.5 l=0.15
X19 a_6200_5250.t0 V_OUT.t9 a_5970_4630.t5 VDDA.t84 sky130_fd_pr__pfet_01v8 ad=0.25 pd=1.5 as=0.25 ps=1.5 w=1 l=0.15
X20 VDDA.t17 opamp_cell_4_0.p_bias.t9 a_5970_4630.t2 VDDA.t16 sky130_fd_pr__pfet_01v8 ad=0.625 pd=3 as=0.625 ps=3 w=2.5 l=0.5
X21 VDDA.t122 VDDA.t119 VDDA.t121 VDDA.t120 sky130_fd_pr__pfet_01v8 ad=1 pd=5 as=0 ps=0 w=2 l=0.6
X22 pfd_8_0.DOWN_input.t1 pfd_8_0.DOWN_b.t4 I_IN.t5 VDDA.t40 sky130_fd_pr__pfet_01v8 ad=1 pd=5 as=1 ps=5 w=2 l=0.15
X23 VDDA.t118 VDDA.t116 VDDA.t118 VDDA.t117 sky130_fd_pr__pfet_01v8 ad=0.5 pd=2.5 as=0 ps=0 w=2 l=0.6
X24 VDDA.t57 pfd_8_0.UP_input.t4 V_OUT.t3 VDDA.t56 sky130_fd_pr__pfet_01v8 ad=0.5 pd=2.5 as=0.5 ps=2.5 w=2 l=0.6
X25 a_1910_2020.t1 pfd_8_0.QB.t3 GNDA.t57 GNDA.t56 sky130_fd_pr__nfet_01v8 ad=0.2 pd=1.4 as=0.4 ps=2.8 w=1 l=0.15
X26 a_6220_5810.t8 a_6220_5810.t7 GNDA.t52 GNDA.t51 sky130_fd_pr__nfet_01v8 ad=0.3125 pd=1.75 as=0.3125 ps=1.75 w=1.25 l=0.5
X27 pfd_8_0.UP.t1 pfd_8_0.UP_PFD_b.t2 VDDA.t128 VDDA.t83 sky130_fd_pr__pfet_01v8 ad=1 pd=5 as=1 ps=5 w=2 l=0.15
X28 a_6320_5840.t12 a_6220_5810.t9 GNDA.t139 GNDA.t138 sky130_fd_pr__nfet_01v8 ad=0.3125 pd=1.75 as=0.3125 ps=1.75 w=1.25 l=0.5
X29 pfd_8_0.UP_input.t0 pfd_8_0.UP.t2 pfd_8_0.opamp_out.t0 GNDA.t35 sky130_fd_pr__nfet_01v8 ad=0.5 pd=3 as=0.5 ps=3 w=1 l=0.15
X30 pfd_8_0.QA.t2 pfd_8_0.QA_b.t4 GNDA.t76 GNDA.t75 sky130_fd_pr__nfet_01v8 ad=0.2 pd=1.4 as=0.4 ps=2.8 w=1 l=0.15
X31 a_5970_4630.t4 opamp_cell_4_0.p_bias.t10 VDDA.t44 VDDA.t43 sky130_fd_pr__pfet_01v8 ad=0.625 pd=3 as=0.625 ps=3 w=2.5 l=0.5
X32 pfd_8_0.DOWN_input.t0 pfd_8_0.DOWN.t3 I_IN.t0 GNDA.t55 sky130_fd_pr__nfet_01v8 ad=0.5 pd=3 as=0.5 ps=3 w=1 l=0.15
X33 a_1390_1400.t1 pfd_8_0.E.t3 pfd_8_0.E_b.t0 VDDA.t8 sky130_fd_pr__pfet_01v8 ad=0.4 pd=2.4 as=0.8 ps=4.8 w=2 l=0.15
X34 I_IN.t2 I_IN.t1 GNDA.t8 GNDA.t7 sky130_fd_pr__nfet_01v8 ad=0.5 pd=2.5 as=0.5 ps=2.5 w=2 l=0.6
X35 a_870_640.t0 pfd_8_0.QB_b.t3 VDDA.t21 VDDA.t20 sky130_fd_pr__pfet_01v8 ad=0.4 pd=2.4 as=0.8 ps=4.8 w=2 l=0.15
X36 VDDA.t115 VDDA.t112 VDDA.t114 VDDA.t113 sky130_fd_pr__pfet_01v8 ad=0.5 pd=3 as=0 ps=0 w=1 l=0.15
X37 pfd_8_0.opamp_out.t11 a_9360_3514.t0 sky130_fd_pr__cap_mim_m3_1 l=10 w=10
X38 V_OUT.t4 loop_filter_2_0.R1_C1.t0 GNDA.t60 sky130_fd_pr__res_xhigh_po_0p35 l=7.52
X39 VDDA.t77 a_2530_190.t2 a_2200_190.t1 VDDA.t76 sky130_fd_pr__pfet_01v8 ad=0.8 pd=4.8 as=0.8 ps=4.8 w=2 l=0.15
X40 GNDA.t134 GNDA.t132 GNDA.t134 GNDA.t133 sky130_fd_pr__nfet_01v8 ad=0.3125 pd=1.75 as=0 ps=0 w=1.25 l=0.5
X41 GNDA.t131 GNDA.t128 GNDA.t130 GNDA.t129 sky130_fd_pr__nfet_01v8 ad=0.25 pd=2 as=0 ps=0 w=0.5 l=0.15
X42 opamp_cell_4_0.p_bias.t6 opamp_cell_4_0.p_bias.t5 VDDA.t19 VDDA.t18 sky130_fd_pr__pfet_01v8 ad=0.625 pd=3 as=0.625 ps=3 w=2.5 l=0.5
X43 VDDA.t111 VDDA.t109 VDDA.t111 VDDA.t110 sky130_fd_pr__pfet_01v8 ad=0.5 pd=2.5 as=0 ps=0 w=2 l=0.6
X44 V_OUT.t2 pfd_8_0.UP_input.t5 VDDA.t52 VDDA.t51 sky130_fd_pr__pfet_01v8 ad=0.5 pd=2.5 as=0.5 ps=2.5 w=2 l=0.6
X45 pfd_8_0.DOWN_input.t2 pfd_8_0.DOWN_b.t5 GNDA.t150 GNDA.t149 sky130_fd_pr__nfet_01v8 ad=0.5 pd=3 as=0.5 ps=3 w=1 l=0.15
X46 GNDA.t12 a_2530_190.t3 a_2200_190.t0 GNDA.t11 sky130_fd_pr__nfet_01v8 ad=0.4 pd=2.8 as=0.4 ps=2.8 w=1 l=0.15
X47 pfd_8_0.F.t0 pfd_8_0.QB_b.t4 GNDA.t48 GNDA.t47 sky130_fd_pr__nfet_01v8 ad=0.2 pd=1.4 as=0.4 ps=2.8 w=1 l=0.15
X48 GNDA.t127 GNDA.t124 GNDA.t126 GNDA.t125 sky130_fd_pr__nfet_01v8 ad=1 pd=5 as=0 ps=0 w=2 l=0.6
X49 GNDA.t123 GNDA.t120 GNDA.t122 GNDA.t121 sky130_fd_pr__nfet_01v8 ad=0.625 pd=3.5 as=0 ps=0 w=1.25 l=0.5
X50 pfd_8_0.opamp_out.t12 a_9360_6440.t1 sky130_fd_pr__cap_mim_m3_1 l=10 w=10
X51 pfd_8_0.UP_b.t2 pfd_8_0.UP.t3 GNDA.t143 GNDA.t142 sky130_fd_pr__nfet_01v8 ad=0.5 pd=3 as=0.5 ps=3 w=1 l=0.15
X52 GNDA.t145 pfd_8_0.E_b.t3 pfd_8_0.E.t2 GNDA.t144 sky130_fd_pr__nfet_01v8 ad=0.4 pd=2.8 as=0.2 ps=1.4 w=1 l=0.15
X53 GNDA.t40 a_6220_5810.t10 a_6320_5840.t7 GNDA.t39 sky130_fd_pr__nfet_01v8 ad=0.3125 pd=1.75 as=0.3125 ps=1.75 w=1.25 l=0.5
X54 GNDA.t119 GNDA.t116 GNDA.t118 GNDA.t117 sky130_fd_pr__nfet_01v8 ad=1 pd=5 as=0 ps=0 w=2 l=0.6
X55 a_1390_640.t0 pfd_8_0.F.t3 pfd_8_0.F_b.t0 VDDA.t8 sky130_fd_pr__pfet_01v8 ad=0.4 pd=2.4 as=0.8 ps=4.8 w=2 l=0.15
X56 a_2350_1400.t1 pfd_8_0.before_Reset.t4 VDDA.t75 VDDA.t74 sky130_fd_pr__pfet_01v8 ad=0.8 pd=4.8 as=0.8 ps=4.8 w=2 l=0.15
X57 GNDA.t83 a_6220_5810.t5 a_6220_5810.t6 GNDA.t82 sky130_fd_pr__nfet_01v8 ad=0.3125 pd=1.75 as=0.3125 ps=1.75 w=1.25 l=0.5
X58 GNDA.t115 GNDA.t112 GNDA.t114 GNDA.t113 sky130_fd_pr__nfet_01v8 ad=1 pd=5 as=0 ps=0 w=2 l=0.6
X59 GNDA.t111 GNDA.t109 GNDA.t111 GNDA.t110 sky130_fd_pr__nfet_01v8 ad=0.125 pd=1 as=0 ps=0 w=0.5 l=0.15
X60 a_5970_4630.t11 a_5970_4630.t10 a_5970_4630.t11 VDDA.t87 sky130_fd_pr__pfet_01v8 ad=0.25 pd=1.5 as=0 ps=0 w=1 l=0.15
X61 pfd_8_0.F_b.t1 pfd_8_0.F.t4 GNDA.t14 GNDA.t13 sky130_fd_pr__nfet_01v8 ad=0.2 pd=1.4 as=0.4 ps=2.8 w=1 l=0.15
X62 VDDA.t73 pfd_8_0.UP_input.t6 V_OUT.t6 VDDA.t72 sky130_fd_pr__pfet_01v8 ad=0.5 pd=2.5 as=0.5 ps=2.5 w=2 l=0.6
X63 GNDA.t156 loop_filter_2_0.R1_C1.t1 sky130_fd_pr__cap_mim_m3_1 l=60 w=69.8
X64 VDDA.t7 pfd_8_0.F.t5 a_490_640.t1 VDDA.t6 sky130_fd_pr__pfet_01v8 ad=0.8 pd=4.8 as=0.4 ps=2.4 w=2 l=0.15
X65 VDDA.t108 VDDA.t106 VDDA.t108 VDDA.t107 sky130_fd_pr__pfet_01v8 ad=0.25 pd=1.5 as=0 ps=0 w=1 l=0.15
X66 pfd_8_0.QA_b.t1 pfd_8_0.QA.t4 a_n30_1400.t1 VDDA.t80 sky130_fd_pr__pfet_01v8 ad=0.8 pd=4.8 as=0.4 ps=2.4 w=2 l=0.15
X67 GNDA.t108 GNDA.t106 GNDA.t108 GNDA.t107 sky130_fd_pr__nfet_01v8 ad=0.125 pd=1 as=0 ps=0 w=0.5 l=0.15
X68 GNDA.t78 pfd_8_0.F.t6 pfd_8_0.QB.t1 GNDA.t77 sky130_fd_pr__nfet_01v8 ad=0.4 pd=2.8 as=0.2 ps=1.4 w=1 l=0.15
X69 pfd_8_0.before_Reset.t2 pfd_8_0.QB.t4 VDDA.t54 VDDA.t53 sky130_fd_pr__pfet_01v8 ad=0.4 pd=2.4 as=0.805 ps=5 w=2 l=0.15
X70 GNDA.t68 a_6490_4630.t6 pfd_8_0.opamp_out.t8 GNDA.t67 sky130_fd_pr__nfet_01v8 ad=0.125 pd=1 as=0.125 ps=1 w=0.5 l=0.15
X71 VDDA.t63 opamp_cell_4_0.n_right.t6 pfd_8_0.opamp_out.t4 VDDA.t62 sky130_fd_pr__pfet_01v8 ad=0.25 pd=1.5 as=0.25 ps=1.5 w=1 l=0.15
X72 opamp_cell_4_0.VIN+.t3 pfd_8_0.opamp_out.t13 VDDA.t5 VDDA.t4 sky130_fd_pr__pfet_01v8 ad=0.5 pd=2.5 as=0.5 ps=2.5 w=2 l=0.6
X73 pfd_8_0.UP_input.t1 pfd_8_0.UP_b.t3 pfd_8_0.opamp_out.t1 VDDA.t40 sky130_fd_pr__pfet_01v8 ad=1 pd=5 as=1 ps=5 w=2 l=0.15
X74 a_490_1400.t1 pfd_8_0.QA_b.t5 pfd_8_0.QA.t1 VDDA.t28 sky130_fd_pr__pfet_01v8 ad=0.4 pd=2.4 as=0.8 ps=4.8 w=2 l=0.15
X75 V_OUT.t5 pfd_8_0.UP_input.t7 VDDA.t69 VDDA.t68 sky130_fd_pr__pfet_01v8 ad=0.5 pd=2.5 as=0.5 ps=2.5 w=2 l=0.6
X76 GNDA.t147 pfd_8_0.Reset.t2 pfd_8_0.E_b.t2 GNDA.t146 sky130_fd_pr__nfet_01v8 ad=0.4 pd=2.8 as=0.2 ps=1.4 w=1 l=0.15
X77 a_2530_190.t0 a_2350_1400.t2 GNDA.t5 GNDA.t4 sky130_fd_pr__nfet_01v8 ad=0.4 pd=2.8 as=0.4 ps=2.8 w=1 l=0.15
X78 VDDA.t82 opamp_cell_4_0.n_left.t2 opamp_cell_4_0.n_left.t3 VDDA.t81 sky130_fd_pr__pfet_01v8 ad=0.25 pd=1.5 as=0.25 ps=1.5 w=1 l=0.15
X79 a_6320_5840.t10 V_OUT.t10 opamp_cell_4_0.n_left.t5 GNDA.t36 sky130_fd_pr__nfet_01v8 ad=0.125 pd=1 as=0.125 ps=1 w=0.5 l=0.15
X80 pfd_8_0.E.t0 pfd_8_0.E_b.t4 a_870_1400.t0 VDDA.t9 sky130_fd_pr__pfet_01v8 ad=0.8 pd=4.8 as=0.4 ps=2.4 w=2 l=0.15
X81 pfd_8_0.UP_b.t0 pfd_8_0.UP.t4 VDDA.t31 VDDA.t30 sky130_fd_pr__pfet_01v8 ad=1 pd=5 as=1 ps=5 w=2 l=0.15
X82 pfd_8_0.DOWN_input.t3 pfd_8_0.DOWN.t0 sky130_fd_pr__cap_mim_m3_1 l=3.8 w=2.7
X83 a_5970_4630.t9 a_5970_4630.t7 a_5970_4630.t8 VDDA.t86 sky130_fd_pr__pfet_01v8 ad=0.5 pd=3 as=0 ps=0 w=1 l=0.15
X84 GNDA.t105 GNDA.t102 GNDA.t104 GNDA.t103 sky130_fd_pr__nfet_01v8 ad=0.25 pd=2 as=0 ps=0 w=0.5 l=0.15
X85 VDDA.t48 a_1870_190.t2 pfd_8_0.Reset.t1 VDDA.t47 sky130_fd_pr__pfet_01v8 ad=0.8 pd=4.8 as=0.8 ps=4.8 w=2 l=0.15
X86 pfd_8_0.opamp_out.t7 a_6490_4630.t7 GNDA.t66 GNDA.t65 sky130_fd_pr__nfet_01v8 ad=0.125 pd=1 as=0.125 ps=1 w=0.5 l=0.15
X87 pfd_8_0.opamp_out.t3 opamp_cell_4_0.n_right.t7 VDDA.t61 VDDA.t60 sky130_fd_pr__pfet_01v8 ad=0.25 pd=1.5 as=0.25 ps=1.5 w=1 l=0.15
X88 GNDA.t16 a_1870_190.t3 pfd_8_0.Reset.t0 GNDA.t15 sky130_fd_pr__nfet_01v8 ad=0.4 pd=2.8 as=0.4 ps=2.8 w=1 l=0.15
X89 VDDA.t105 VDDA.t102 VDDA.t104 VDDA.t103 sky130_fd_pr__pfet_01v8 ad=1 pd=5 as=0 ps=0 w=2 l=0.6
X90 opamp_cell_4_0.p_bias.t4 opamp_cell_4_0.p_bias.t3 VDDA.t37 VDDA.t36 sky130_fd_pr__pfet_01v8 ad=0.625 pd=3 as=0.625 ps=3 w=2.5 l=0.5
X91 opamp_cell_4_0.p_bias.t0 a_6220_5810.t0 GNDA.t20 sky130_fd_pr__res_xhigh_po_5p73 l=1
X92 opamp_cell_4_0.n_left.t1 opamp_cell_4_0.n_left.t0 VDDA.t1 VDDA.t0 sky130_fd_pr__pfet_01v8 ad=0.25 pd=1.5 as=0.25 ps=1.5 w=1 l=0.15
X93 GNDA.t157 V_OUT.t7 sky130_fd_pr__cap_mim_m3_1 l=60 w=13.8
X94 opamp_cell_4_0.n_left.t4 V_OUT.t11 a_6320_5840.t11 GNDA.t155 sky130_fd_pr__nfet_01v8 ad=0.125 pd=1 as=0.125 ps=1 w=0.5 l=0.15
X95 a_5970_4630.t1 opamp_cell_4_0.p_bias.t11 VDDA.t15 VDDA.t14 sky130_fd_pr__pfet_01v8 ad=0.625 pd=3 as=0.625 ps=3 w=2.5 l=0.5
X96 pfd_8_0.before_Reset.t1 pfd_8_0.QA.t5 a_1910_2020.t0 GNDA.t33 sky130_fd_pr__nfet_01v8 ad=0.4 pd=2.8 as=0.2 ps=1.4 w=1 l=0.15
X97 pfd_8_0.UP_PFD_b.t0 pfd_8_0.QA.t6 GNDA.t30 GNDA.t29 sky130_fd_pr__nfet_01v8 ad=0.5 pd=3 as=0.5 ps=3 w=1 l=0.15
X98 GNDA.t46 pfd_8_0.E.t4 pfd_8_0.QA.t0 GNDA.t45 sky130_fd_pr__nfet_01v8 ad=0.4 pd=2.8 as=0.2 ps=1.4 w=1 l=0.15
X99 a_9360_6440.t0 a_6490_4630.t0 GNDA.t19 sky130_fd_pr__res_xhigh_po_0p35 l=0.86
X100 VDDA.t101 VDDA.t99 VDDA.t101 VDDA.t100 sky130_fd_pr__pfet_01v8 ad=0.625 pd=3 as=0 ps=0 w=2.5 l=0.5
X101 pfd_8_0.F.t1 pfd_8_0.F_b.t3 a_870_640.t1 VDDA.t9 sky130_fd_pr__pfet_01v8 ad=0.8 pd=4.8 as=0.4 ps=2.4 w=2 l=0.15
X102 VDDA.t33 pfd_8_0.Reset.t3 a_1390_1400.t0 VDDA.t32 sky130_fd_pr__pfet_01v8 ad=0.8 pd=4.8 as=0.4 ps=2.4 w=2 l=0.15
X103 GNDA.t101 GNDA.t99 GNDA.t101 GNDA.t100 sky130_fd_pr__nfet_01v8 ad=0.5 pd=2.5 as=0 ps=0 w=2 l=0.6
X104 a_2530_190.t1 a_2350_1400.t3 VDDA.t39 VDDA.t38 sky130_fd_pr__pfet_01v8 ad=0.8 pd=4.8 as=0.8 ps=4.8 w=2 l=0.15
X105 GNDA.t85 a_6220_5810.t3 a_6220_5810.t4 GNDA.t84 sky130_fd_pr__nfet_01v8 ad=0.3125 pd=1.75 as=0.3125 ps=1.75 w=1.25 l=0.5
X106 GNDA.t64 a_6490_4630.t8 pfd_8_0.opamp_out.t6 GNDA.t63 sky130_fd_pr__nfet_01v8 ad=0.125 pd=1 as=0.125 ps=1 w=0.5 l=0.15
X107 VDDA.t59 opamp_cell_4_0.n_right.t8 pfd_8_0.opamp_out.t2 VDDA.t58 sky130_fd_pr__pfet_01v8 ad=0.25 pd=1.5 as=0.25 ps=1.5 w=1 l=0.15
X108 VDDA.t98 VDDA.t95 VDDA.t97 VDDA.t96 sky130_fd_pr__pfet_01v8 ad=1.25 pd=6 as=0 ps=0 w=2.5 l=0.5
X109 GNDA.t80 pfd_8_0.F_b.t4 pfd_8_0.F.t2 GNDA.t79 sky130_fd_pr__nfet_01v8 ad=0.4 pd=2.8 as=0.2 ps=1.4 w=1 l=0.15
X110 GNDA.t3 a_6220_5810.t11 a_6320_5840.t5 GNDA.t2 sky130_fd_pr__nfet_01v8 ad=0.3125 pd=1.75 as=0.3125 ps=1.75 w=1.25 l=0.5
X111 pfd_8_0.QB_b.t1 pfd_8_0.QB.t5 a_n30_640.t0 VDDA.t80 sky130_fd_pr__pfet_01v8 ad=0.8 pd=4.8 as=0.4 ps=2.4 w=2 l=0.15
X112 GNDA.t91 a_6200_5250.t6 a_6490_4630.t4 GNDA.t90 sky130_fd_pr__nfet_01v8 ad=0.125 pd=1 as=0.125 ps=1 w=0.5 l=0.15
X113 a_5970_4630.t12 opamp_cell_4_0.VIN+.t7 a_6490_4630.t2 VDDA.t127 sky130_fd_pr__pfet_01v8 ad=0.25 pd=1.5 as=0.25 ps=1.5 w=1 l=0.15
X114 VDDA.t13 opamp_cell_4_0.p_bias.t12 a_5970_4630.t0 VDDA.t12 sky130_fd_pr__pfet_01v8 ad=0.625 pd=3 as=0.625 ps=3 w=2.5 l=0.5
X115 VDDA.t78 pfd_8_0.Reset.t4 a_1390_640.t1 VDDA.t32 sky130_fd_pr__pfet_01v8 ad=0.8 pd=4.8 as=0.4 ps=2.4 w=2 l=0.15
X116 VDDA.t23 opamp_cell_4_0.p_bias.t1 opamp_cell_4_0.p_bias.t2 VDDA.t22 sky130_fd_pr__pfet_01v8 ad=0.625 pd=3 as=0.625 ps=3 w=2.5 l=0.5
X117 pfd_8_0.UP_input.t2 pfd_8_0.UP.t5 VDDA.t124 VDDA.t123 sky130_fd_pr__pfet_01v8 ad=1 pd=5 as=1 ps=5 w=2 l=0.15
X118 opamp_cell_4_0.n_right.t4 a_9360_3514.t1 GNDA.t81 sky130_fd_pr__res_xhigh_po_0p35 l=1.14
X119 VDDA.t94 VDDA.t91 VDDA.t93 VDDA.t92 sky130_fd_pr__pfet_01v8 ad=0.5 pd=3 as=0 ps=0 w=1 l=0.15
X120 a_6320_5840.t4 a_6320_5840.t2 a_6320_5840.t3 GNDA.t53 sky130_fd_pr__nfet_01v8 ad=0.25 pd=2 as=0 ps=0 w=0.5 l=0.15
X121 GNDA.t1 pfd_8_0.QB.t6 pfd_8_0.QB_b.t2 GNDA.t0 sky130_fd_pr__nfet_01v8 ad=0.4 pd=2.8 as=0.2 ps=1.4 w=1 l=0.15
X122 a_6320_5840.t6 a_6220_5810.t12 GNDA.t38 GNDA.t37 sky130_fd_pr__nfet_01v8 ad=0.3125 pd=1.75 as=0.3125 ps=1.75 w=1.25 l=0.5
X123 GNDA.t62 pfd_8_0.Reset.t5 pfd_8_0.F_b.t2 GNDA.t61 sky130_fd_pr__nfet_01v8 ad=0.4 pd=2.8 as=0.2 ps=1.4 w=1 l=0.15
X124 GNDA.t28 pfd_8_0.DOWN_input.t4 V_OUT.t1 GNDA.t27 sky130_fd_pr__nfet_01v8 ad=0.5 pd=2.5 as=0.5 ps=2.5 w=2 l=0.6
X125 a_6320_5840.t1 a_6320_5840.t0 a_6320_5840.t1 GNDA.t54 sky130_fd_pr__nfet_01v8 ad=0.125 pd=1 as=0 ps=0 w=0.5 l=0.15
X126 VDDA.t90 VDDA.t88 VDDA.t90 VDDA.t89 sky130_fd_pr__pfet_01v8 ad=0.25 pd=1.5 as=0 ps=0 w=1 l=0.15
X127 a_6220_5810.t2 a_6220_5810.t1 GNDA.t87 GNDA.t86 sky130_fd_pr__nfet_01v8 ad=0.3125 pd=1.75 as=0.3125 ps=1.75 w=1.25 l=0.5
X128 GNDA.t141 I_IN.t6 opamp_cell_4_0.VIN+.t5 GNDA.t140 sky130_fd_pr__nfet_01v8 ad=0.5 pd=2.5 as=0.5 ps=2.5 w=2 l=0.6
X129 pfd_8_0.E.t1 pfd_8_0.QA_b.t6 GNDA.t22 GNDA.t21 sky130_fd_pr__nfet_01v8 ad=0.2 pd=1.4 as=0.4 ps=2.8 w=1 l=0.15
X130 VDDA.t25 pfd_8_0.QA.t7 pfd_8_0.before_Reset.t0 VDDA.t24 sky130_fd_pr__pfet_01v8 ad=0.8 pd=4.8 as=0.4 ps=2.4 w=2 l=0.15
X131 a_n30_640.t1 F_VCO.t0 VDDA.t67 VDDA.t66 sky130_fd_pr__pfet_01v8 ad=0.4 pd=2.4 as=0.8 ps=4.8 w=2 l=0.15
X132 pfd_8_0.UP_PFD_b.t1 pfd_8_0.QA.t8 VDDA.t3 VDDA.t2 sky130_fd_pr__pfet_01v8 ad=1 pd=5 as=1 ps=5 w=2 l=0.15
X133 a_6490_4630.t3 a_6200_5250.t7 GNDA.t89 GNDA.t88 sky130_fd_pr__nfet_01v8 ad=0.125 pd=1 as=0.125 ps=1 w=0.5 l=0.15
X134 a_6490_4630.t1 opamp_cell_4_0.VIN+.t8 a_5970_4630.t3 VDDA.t29 sky130_fd_pr__pfet_01v8 ad=0.25 pd=1.5 as=0.25 ps=1.5 w=1 l=0.15
X135 VDDA.t125 pfd_8_0.E.t5 a_490_1400.t0 VDDA.t6 sky130_fd_pr__pfet_01v8 ad=0.8 pd=4.8 as=0.4 ps=2.4 w=2 l=0.15
X136 VDDA.t42 a_2200_190.t2 a_1870_190.t1 VDDA.t41 sky130_fd_pr__pfet_01v8 ad=0.8 pd=4.8 as=0.8 ps=4.8 w=2 l=0.15
X137 pfd_8_0.QA_b.t0 F_REF.t1 GNDA.t59 GNDA.t58 sky130_fd_pr__nfet_01v8 ad=0.2 pd=1.4 as=0.4 ps=2.8 w=1 l=0.15
X138 pfd_8_0.QB_b.t0 F_VCO.t1 GNDA.t18 GNDA.t17 sky130_fd_pr__nfet_01v8 ad=0.2 pd=1.4 as=0.4 ps=2.8 w=1 l=0.15
X139 V_OUT.t0 pfd_8_0.DOWN_input.t5 GNDA.t10 GNDA.t9 sky130_fd_pr__nfet_01v8 ad=0.5 pd=2.5 as=0.5 ps=2.5 w=2 l=0.6
X140 a_490_640.t0 pfd_8_0.QB_b.t5 pfd_8_0.QB.t2 VDDA.t28 sky130_fd_pr__pfet_01v8 ad=0.4 pd=2.4 as=0.8 ps=4.8 w=2 l=0.15
X141 VDDA.t11 pfd_8_0.opamp_out.t14 opamp_cell_4_0.VIN+.t2 VDDA.t10 sky130_fd_pr__pfet_01v8 ad=0.5 pd=2.5 as=0.5 ps=2.5 w=2 l=0.6
X142 GNDA.t50 a_2200_190.t3 a_1870_190.t0 GNDA.t49 sky130_fd_pr__nfet_01v8 ad=0.4 pd=2.8 as=0.4 ps=2.8 w=1 l=0.15
X143 opamp_cell_4_0.VIN+.t0 I_IN.t7 GNDA.t24 GNDA.t23 sky130_fd_pr__nfet_01v8 ad=0.5 pd=2.5 as=0.5 ps=2.5 w=2 l=0.6
X144 a_6320_5840.t9 opamp_cell_4_0.VIN+.t9 opamp_cell_4_0.n_right.t0 GNDA.t6 sky130_fd_pr__nfet_01v8 ad=0.125 pd=1 as=0.125 ps=1 w=0.5 l=0.15
X145 VDDA.t50 opamp_cell_4_0.n_left.t7 opamp_cell_4_0.n_right.t2 VDDA.t49 sky130_fd_pr__pfet_01v8 ad=0.25 pd=1.5 as=0.25 ps=1.5 w=1 l=0.15
X146 pfd_8_0.QB.t0 pfd_8_0.QB_b.t6 GNDA.t44 GNDA.t43 sky130_fd_pr__nfet_01v8 ad=0.2 pd=1.4 as=0.4 ps=2.8 w=1 l=0.15
X147 pfd_8_0.DOWN_PFD_b.t1 pfd_8_0.QB.t7 VDDA.t79 VDDA.t2 sky130_fd_pr__pfet_01v8 ad=1 pd=5 as=1 ps=5 w=2 l=0.15
X148 pfd_8_0.UP.t0 pfd_8_0.UP_PFD_b.t3 GNDA.t154 GNDA.t153 sky130_fd_pr__nfet_01v8 ad=0.5 pd=3 as=0.5 ps=3 w=1 l=0.15
X149 GNDA.t98 GNDA.t96 GNDA.t98 GNDA.t97 sky130_fd_pr__nfet_01v8 ad=0.5 pd=2.5 as=0 ps=0 w=2 l=0.6
X150 pfd_8_0.DOWN_PFD_b.t0 pfd_8_0.QB.t8 GNDA.t32 GNDA.t31 sky130_fd_pr__nfet_01v8 ad=0.5 pd=3 as=0.5 ps=3 w=1 l=0.15
X151 pfd_8_0.E_b.t1 pfd_8_0.E.t6 GNDA.t42 GNDA.t41 sky130_fd_pr__nfet_01v8 ad=0.2 pd=1.4 as=0.4 ps=2.8 w=1 l=0.15
X152 opamp_cell_4_0.VIN+.t1 pfd_8_0.opamp_out.t15 VDDA.t35 VDDA.t34 sky130_fd_pr__pfet_01v8 ad=0.5 pd=2.5 as=0.5 ps=2.5 w=2 l=0.6
X153 pfd_8_0.DOWN_b.t0 GNDA.t158 pfd_8_0.DOWN_PFD_b.t2 VDDA.t83 sky130_fd_pr__pfet_01v8 ad=1 pd=5 as=1 ps=5 w=2 l=0.15
R0 a_6200_5250.n5 a_6200_5250.n4 427.647
R1 a_6200_5250.n1 a_6200_5250.t6 321.334
R2 a_6200_5250.n4 a_6200_5250.n0 210.601
R3 a_6200_5250.n2 a_6200_5250.n1 208.868
R4 a_6200_5250.n3 a_6200_5250.t3 174.056
R5 a_6200_5250.n4 a_6200_5250.n3 152
R6 a_6200_5250.n1 a_6200_5250.t7 112.468
R7 a_6200_5250.n2 a_6200_5250.t1 112.468
R8 a_6200_5250.n3 a_6200_5250.n2 61.5894
R9 a_6200_5250.n0 a_6200_5250.t2 60.0005
R10 a_6200_5250.n0 a_6200_5250.t4 60.0005
R11 a_6200_5250.n5 a_6200_5250.t5 49.2505
R12 a_6200_5250.t0 a_6200_5250.n5 49.2505
R13 GNDA.n397 GNDA.n396 348175
R14 GNDA.n396 GNDA.n395 292776
R15 GNDA.n348 GNDA.t35 25257.7
R16 GNDA.n348 GNDA.n148 15376.3
R17 GNDA.n395 GNDA.t149 2083.03
R18 GNDA.t13 GNDA.t79 1939.79
R19 GNDA.t43 GNDA.t0 1939.79
R20 GNDA.n186 GNDA.n24 1860.65
R21 GNDA.t34 GNDA.t31 1845.16
R22 GNDA.t73 GNDA.t55 1372.04
R23 GNDA.t15 GNDA.n400 1253.76
R24 GNDA.n403 GNDA.n23 1230.11
R25 GNDA.n340 GNDA.n339 1186
R26 GNDA.n185 GNDA.n184 1186
R27 GNDA.n178 GNDA.n177 1186
R28 GNDA.n347 GNDA.n346 1186
R29 GNDA.n350 GNDA.n349 1170
R30 GNDA.n394 GNDA.t55 1064.52
R31 GNDA.n357 GNDA.t34 1064.52
R32 GNDA.n395 GNDA.n26 1052.76
R33 GNDA.t11 GNDA.n402 922.582
R34 GNDA.t49 GNDA.n401 922.582
R35 GNDA.n232 GNDA.t58 783.001
R36 GNDA.t149 GNDA.n394 780.645
R37 GNDA.n357 GNDA.t73 780.645
R38 GNDA.t31 GNDA.n23 780.645
R39 GNDA.n99 GNDA.n98 669.307
R40 GNDA.n102 GNDA.n101 669.307
R41 GNDA.n120 GNDA.n119 669.307
R42 GNDA.n123 GNDA.n122 669.307
R43 GNDA.n147 GNDA.n146 669.307
R44 GNDA.n141 GNDA.n28 669.307
R45 GNDA.n403 GNDA.t11 638.711
R46 GNDA.n402 GNDA.t49 638.711
R47 GNDA.n401 GNDA.t15 638.711
R48 GNDA.n400 GNDA.t61 638.711
R49 GNDA.t47 GNDA.n399 638.711
R50 GNDA.n399 GNDA.t77 638.711
R51 GNDA.t17 GNDA.n397 638.711
R52 GNDA.t144 GNDA.t41 601.333
R53 GNDA.t151 GNDA.t75 601.333
R54 GNDA.t27 GNDA.t100 593.865
R55 GNDA.t9 GNDA.t27 593.865
R56 GNDA.t125 GNDA.t9 593.865
R57 GNDA.t140 GNDA.t97 593.865
R58 GNDA.t23 GNDA.t140 593.865
R59 GNDA.t117 GNDA.t23 593.865
R60 GNDA.t136 GNDA.t25 593.865
R61 GNDA.t25 GNDA.t7 593.865
R62 GNDA.t7 GNDA.t113 593.865
R63 GNDA.n231 GNDA.n230 585.003
R64 GNDA.n399 GNDA.n398 585.003
R65 GNDA.n228 GNDA.n227 585.001
R66 GNDA.n226 GNDA.n225 585.001
R67 GNDA.n224 GNDA.n223 585.001
R68 GNDA.n205 GNDA.n25 585.001
R69 GNDA.n338 GNDA.n337 585.001
R70 GNDA.n187 GNDA.n186 585.001
R71 GNDA.n197 GNDA.n196 585.001
R72 GNDA.n199 GNDA.n198 585.001
R73 GNDA.n201 GNDA.n200 585.001
R74 GNDA.n394 GNDA.n393 585.001
R75 GNDA.n358 GNDA.n357 585.001
R76 GNDA.n363 GNDA.n23 585.001
R77 GNDA.n404 GNDA.n403 585.001
R78 GNDA.n402 GNDA.n19 585.001
R79 GNDA.n401 GNDA.n16 585.001
R80 GNDA.n400 GNDA.n13 585.001
R81 GNDA.n397 GNDA.n2 585.001
R82 GNDA.n145 GNDA.n29 585
R83 GNDA.n143 GNDA.n142 585
R84 GNDA.n44 GNDA.n40 585
R85 GNDA.n42 GNDA.n39 585
R86 GNDA.n61 GNDA.n57 585
R87 GNDA.n59 GNDA.n56 585
R88 GNDA.n72 GNDA.n71 585
R89 GNDA.n71 GNDA.n26 585
R90 GNDA.n75 GNDA.n74 585
R91 GNDA.n77 GNDA.n69 585
R92 GNDA.n79 GNDA.n78 585
R93 GNDA.n78 GNDA.n26 585
R94 GNDA.n376 GNDA.t158 566.966
R95 GNDA.n148 GNDA.t100 566.871
R96 GNDA.n121 GNDA.t125 566.871
R97 GNDA.n121 GNDA.t97 566.871
R98 GNDA.n100 GNDA.t117 566.871
R99 GNDA.n100 GNDA.t136 566.871
R100 GNDA.t113 GNDA.n26 566.871
R101 GNDA.t19 GNDA.n347 564.696
R102 GNDA.n348 GNDA.t81 534.24
R103 GNDA.t61 GNDA.t13 520.431
R104 GNDA.t79 GNDA.t47 520.431
R105 GNDA.t77 GNDA.t43 520.431
R106 GNDA.t0 GNDA.t17 520.431
R107 GNDA.t81 GNDA.t19 509.197
R108 GNDA.t142 GNDA.t35 425.334
R109 GNDA.n200 GNDA.t4 418
R110 GNDA.t153 GNDA.n197 344.668
R111 GNDA.t29 GNDA.n199 344.668
R112 GNDA.n58 GNDA.t135 336.329
R113 GNDA.n58 GNDA.t116 336.329
R114 GNDA.n41 GNDA.t96 336.329
R115 GNDA.n41 GNDA.t124 336.329
R116 GNDA.n349 GNDA.n348 331.702
R117 GNDA.n80 GNDA.t112 320.7
R118 GNDA.n140 GNDA.t99 320.7
R119 GNDA.n149 GNDA.t106 304.634
R120 GNDA.n341 GNDA.t128 304.634
R121 GNDA.n183 GNDA.t102 304.634
R122 GNDA.n179 GNDA.t109 304.634
R123 GNDA.n336 GNDA.t132 292.584
R124 GNDA.n188 GNDA.t120 292.584
R125 GNDA.t71 GNDA.n25 286
R126 GNDA.t33 GNDA.n224 286
R127 GNDA.n148 GNDA.n147 250.349
R128 GNDA.n148 GNDA.n28 250.349
R129 GNDA.n121 GNDA.n120 250.349
R130 GNDA.n122 GNDA.n121 250.349
R131 GNDA.n100 GNDA.n99 250.349
R132 GNDA.n101 GNDA.n100 250.349
R133 GNDA.n76 GNDA.n26 250.349
R134 GNDA.n346 GNDA.t108 245
R135 GNDA.n340 GNDA.t131 245
R136 GNDA.n184 GNDA.t105 245
R137 GNDA.n178 GNDA.t111 245
R138 GNDA.n197 GNDA.t142 227.333
R139 GNDA.n199 GNDA.t153 227.333
R140 GNDA.n200 GNDA.t29 227.333
R141 GNDA.n228 GNDA.n226 205.333
R142 GNDA.n343 GNDA.n151 204.201
R143 GNDA.n181 GNDA.n175 204.201
R144 GNDA.n182 GNDA.n174 204.201
R145 GNDA.n180 GNDA.n176 204.201
R146 GNDA.n342 GNDA.n152 204.201
R147 GNDA.n345 GNDA.n344 204.201
R148 GNDA.n3 GNDA.t1 198.058
R149 GNDA.n445 GNDA.t44 198.058
R150 GNDA.n433 GNDA.t80 198.058
R151 GNDA.n11 GNDA.t14 198.058
R152 GNDA.n257 GNDA.t42 198.058
R153 GNDA.n252 GNDA.t145 198.058
R154 GNDA.n220 GNDA.t76 198.058
R155 GNDA.n238 GNDA.t152 198.058
R156 GNDA.n224 GNDA.t71 198
R157 GNDA.n226 GNDA.t56 198
R158 GNDA.t146 GNDA.n228 198
R159 GNDA.n231 GNDA.t21 198
R160 GNDA.t45 GNDA.n231 198
R161 GNDA.n57 GNDA.n56 197
R162 GNDA.n40 GNDA.n39 197
R163 GNDA.n142 GNDA.n29 197
R164 GNDA.n75 GNDA.n71 197
R165 GNDA.n78 GNDA.n77 197
R166 GNDA.n98 GNDA.n55 185
R167 GNDA.n102 GNDA.n55 185
R168 GNDA.n119 GNDA.n38 185
R169 GNDA.n123 GNDA.n38 185
R170 GNDA.n146 GNDA.n30 185
R171 GNDA.n141 GNDA.n30 185
R172 GNDA.n72 GNDA.n70 185
R173 GNDA.n79 GNDA.n70 185
R174 GNDA.n98 GNDA.n58 166.63
R175 GNDA.n119 GNDA.n41 166.63
R176 GNDA.n351 GNDA.n350 166.119
R177 GNDA.t56 GNDA.t33 161.333
R178 GNDA.t41 GNDA.t146 161.333
R179 GNDA.t21 GNDA.t144 161.333
R180 GNDA.t75 GNDA.t45 161.333
R181 GNDA.t58 GNDA.t151 161.333
R182 GNDA.n337 GNDA.t134 134.501
R183 GNDA.n187 GNDA.t123 134.501
R184 GNDA.n7 GNDA.t78 130.713
R185 GNDA.n232 GNDA.t59 130.001
R186 GNDA.n227 GNDA.t147 130.001
R187 GNDA.n225 GNDA.t57 130.001
R188 GNDA.n223 GNDA.t72 130.001
R189 GNDA.n205 GNDA.t5 130.001
R190 GNDA.n2 GNDA.t18 130.001
R191 GNDA.n13 GNDA.t62 130.001
R192 GNDA.n16 GNDA.t16 130.001
R193 GNDA.n19 GNDA.t50 130.001
R194 GNDA.n404 GNDA.t12 130.001
R195 GNDA.n229 GNDA.t22 130.001
R196 GNDA.n219 GNDA.t46 130.001
R197 GNDA.n8 GNDA.t48 130.001
R198 GNDA.n201 GNDA.t30 122.501
R199 GNDA.n198 GNDA.t154 122.501
R200 GNDA.n196 GNDA.t143 122.501
R201 GNDA.n363 GNDA.t32 122.501
R202 GNDA.n358 GNDA.t74 122.501
R203 GNDA.n393 GNDA.t150 122.501
R204 GNDA.n338 GNDA.t54 112.451
R205 GNDA.n156 GNDA.n155 97.8707
R206 GNDA.n160 GNDA.n159 97.8707
R207 GNDA.n164 GNDA.n163 97.8707
R208 GNDA.n168 GNDA.n167 97.8707
R209 GNDA.n173 GNDA.n172 97.8707
R210 GNDA.n177 GNDA.t51 97.7783
R211 GNDA.n339 GNDA.t129 95.1512
R212 GNDA.n347 GNDA.t107 94.9025
R213 GNDA.n130 GNDA.n129 92.2612
R214 GNDA.n138 GNDA.n137 92.2612
R215 GNDA.n116 GNDA.n115 92.2612
R216 GNDA.n109 GNDA.n50 92.2612
R217 GNDA.n95 GNDA.n94 92.2612
R218 GNDA.n88 GNDA.n68 92.2612
R219 GNDA.n60 GNDA.n55 91.3721
R220 GNDA.n97 GNDA.n96 91.3721
R221 GNDA.n96 GNDA.n54 91.3721
R222 GNDA.n43 GNDA.n38 91.3721
R223 GNDA.n118 GNDA.n117 91.3721
R224 GNDA.n117 GNDA.n37 91.3721
R225 GNDA.n144 GNDA.n30 90.7567
R226 GNDA.n73 GNDA.n70 90.7567
R227 GNDA.t51 GNDA.t53 89.1508
R228 GNDA.n185 GNDA.t121 86.275
R229 GNDA.n350 GNDA.t157 86.0829
R230 GNDA.n147 GNDA.n29 84.306
R231 GNDA.n142 GNDA.n28 84.306
R232 GNDA.n120 GNDA.n40 84.306
R233 GNDA.n122 GNDA.n39 84.306
R234 GNDA.n99 GNDA.n57 84.306
R235 GNDA.n101 GNDA.n56 84.306
R236 GNDA.n76 GNDA.n75 84.306
R237 GNDA.n77 GNDA.n76 84.306
R238 GNDA.n181 GNDA.n180 83.2005
R239 GNDA.n182 GNDA.n181 83.2005
R240 GNDA.n350 GNDA.t156 82.8829
R241 GNDA.n396 GNDA.n24 80.6672
R242 GNDA.t82 GNDA.t110 77.6476
R243 GNDA.n339 GNDA.n338 74.9677
R244 GNDA.t129 GNDA.t69 74.8697
R245 GNDA.t67 GNDA.t107 74.7717
R246 GNDA.t65 GNDA.t67 74.7717
R247 GNDA.t63 GNDA.t65 74.7717
R248 GNDA.t69 GNDA.t63 74.7717
R249 GNDA.t36 GNDA.t148 74.7717
R250 GNDA.t90 GNDA.t88 74.7717
R251 GNDA.t92 GNDA.t103 74.7717
R252 GNDA.n396 GNDA.n25 73.3338
R253 GNDA.t6 GNDA.t133 72.0844
R254 GNDA.t39 GNDA.t94 71.8959
R255 GNDA.n344 GNDA.n343 66.5605
R256 GNDA.n343 GNDA.n342 66.5605
R257 GNDA.t155 GNDA.t138 66.1443
R258 GNDA.n343 GNDA.n150 65.9634
R259 GNDA.n233 GNDA.n232 60.29
R260 GNDA.n227 GNDA.n212 60.29
R261 GNDA.n225 GNDA.n211 60.29
R262 GNDA.n223 GNDA.n208 60.29
R263 GNDA.n276 GNDA.n205 60.29
R264 GNDA.n405 GNDA.n404 60.29
R265 GNDA.n412 GNDA.n19 60.29
R266 GNDA.n418 GNDA.n16 60.29
R267 GNDA.n425 GNDA.n13 60.29
R268 GNDA.n453 GNDA.n2 60.29
R269 GNDA.n151 GNDA.t66 60.0005
R270 GNDA.n151 GNDA.t64 60.0005
R271 GNDA.n175 GNDA.t89 60.0005
R272 GNDA.n175 GNDA.t95 60.0005
R273 GNDA.n174 GNDA.t93 60.0005
R274 GNDA.n174 GNDA.t104 60.0005
R275 GNDA.t111 GNDA.n176 60.0005
R276 GNDA.n176 GNDA.t91 60.0005
R277 GNDA.n152 GNDA.t70 60.0005
R278 GNDA.n152 GNDA.t130 60.0005
R279 GNDA.t108 GNDA.n345 60.0005
R280 GNDA.n345 GNDA.t68 60.0005
R281 GNDA.n202 GNDA.n201 59.5478
R282 GNDA.n198 GNDA.n192 59.5478
R283 GNDA.n196 GNDA.n190 59.5478
R284 GNDA.n381 GNDA.n358 58.9809
R285 GNDA.n364 GNDA.n363 58.9809
R286 GNDA.n393 GNDA.n392 58.9809
R287 GNDA.n246 GNDA.n219 54.4005
R288 GNDA.n229 GNDA.n218 54.4005
R289 GNDA.n438 GNDA.n8 54.4005
R290 GNDA.n440 GNDA.n7 54.4005
R291 GNDA.t84 GNDA.t155 48.8894
R292 GNDA.t4 GNDA.n24 44.0005
R293 GNDA.t94 GNDA.t37 43.1378
R294 GNDA.n181 GNDA.n170 41.6005
R295 GNDA.n83 GNDA.n82 41.3005
R296 GNDA.t2 GNDA.t6 40.3637
R297 GNDA.n333 GNDA.n150 39.4985
R298 GNDA.t110 GNDA.t86 37.3861
R299 GNDA.t86 GNDA.t90 37.3861
R300 GNDA.n349 GNDA.t60 34.0494
R301 GNDA.n233 GNDA.n0 33.0991
R302 GNDA.n454 GNDA.n453 33.0991
R303 GNDA.n130 GNDA.n128 32.0005
R304 GNDA.n128 GNDA.n34 32.0005
R305 GNDA.n136 GNDA.n135 32.0005
R306 GNDA.n135 GNDA.n32 32.0005
R307 GNDA.n131 GNDA.n32 32.0005
R308 GNDA.n45 GNDA.n36 32.0005
R309 GNDA.n114 GNDA.n48 32.0005
R310 GNDA.n110 GNDA.n48 32.0005
R311 GNDA.n110 GNDA.n109 32.0005
R312 GNDA.n108 GNDA.n51 32.0005
R313 GNDA.n104 GNDA.n51 32.0005
R314 GNDA.n103 GNDA.n53 32.0005
R315 GNDA.n62 GNDA.n53 32.0005
R316 GNDA.n93 GNDA.n66 32.0005
R317 GNDA.n89 GNDA.n66 32.0005
R318 GNDA.n87 GNDA.n81 32.0005
R319 GNDA.n294 GNDA.n190 32.0005
R320 GNDA.n294 GNDA.n293 32.0005
R321 GNDA.n293 GNDA.n292 32.0005
R322 GNDA.n289 GNDA.n288 32.0005
R323 GNDA.n288 GNDA.n287 32.0005
R324 GNDA.n287 GNDA.n194 32.0005
R325 GNDA.n283 GNDA.n282 32.0005
R326 GNDA.n282 GNDA.n281 32.0005
R327 GNDA.n281 GNDA.n203 32.0005
R328 GNDA.n277 GNDA.n203 32.0005
R329 GNDA.n275 GNDA.n274 32.0005
R330 GNDA.n274 GNDA.n206 32.0005
R331 GNDA.n270 GNDA.n269 32.0005
R332 GNDA.n269 GNDA.n268 32.0005
R333 GNDA.n268 GNDA.n209 32.0005
R334 GNDA.n264 GNDA.n263 32.0005
R335 GNDA.n263 GNDA.n262 32.0005
R336 GNDA.n259 GNDA.n258 32.0005
R337 GNDA.n258 GNDA.n257 32.0005
R338 GNDA.n257 GNDA.n214 32.0005
R339 GNDA.n253 GNDA.n214 32.0005
R340 GNDA.n253 GNDA.n252 32.0005
R341 GNDA.n252 GNDA.n251 32.0005
R342 GNDA.n251 GNDA.n216 32.0005
R343 GNDA.n245 GNDA.n244 32.0005
R344 GNDA.n244 GNDA.n220 32.0005
R345 GNDA.n240 GNDA.n220 32.0005
R346 GNDA.n240 GNDA.n239 32.0005
R347 GNDA.n239 GNDA.n238 32.0005
R348 GNDA.n238 GNDA.n222 32.0005
R349 GNDA.n234 GNDA.n222 32.0005
R350 GNDA.n333 GNDA.n332 32.0005
R351 GNDA.n332 GNDA.n331 32.0005
R352 GNDA.n331 GNDA.n154 32.0005
R353 GNDA.n327 GNDA.n154 32.0005
R354 GNDA.n327 GNDA.n326 32.0005
R355 GNDA.n326 GNDA.n325 32.0005
R356 GNDA.n325 GNDA.n158 32.0005
R357 GNDA.n321 GNDA.n158 32.0005
R358 GNDA.n321 GNDA.n320 32.0005
R359 GNDA.n320 GNDA.n319 32.0005
R360 GNDA.n319 GNDA.n162 32.0005
R361 GNDA.n315 GNDA.n162 32.0005
R362 GNDA.n315 GNDA.n314 32.0005
R363 GNDA.n314 GNDA.n313 32.0005
R364 GNDA.n313 GNDA.n166 32.0005
R365 GNDA.n309 GNDA.n308 32.0005
R366 GNDA.n308 GNDA.n307 32.0005
R367 GNDA.n307 GNDA.n171 32.0005
R368 GNDA.n302 GNDA.n171 32.0005
R369 GNDA.n302 GNDA.n301 32.0005
R370 GNDA.n301 GNDA.n300 32.0005
R371 GNDA.n391 GNDA.n353 32.0005
R372 GNDA.n387 GNDA.n353 32.0005
R373 GNDA.n387 GNDA.n386 32.0005
R374 GNDA.n386 GNDA.n385 32.0005
R375 GNDA.n385 GNDA.n355 32.0005
R376 GNDA.n381 GNDA.n355 32.0005
R377 GNDA.n381 GNDA.n380 32.0005