* PEX produced on Mon Sep  1 11:23:19 PM CEST 2025 using /foss/tools/osic-multitool/iic-pex.sh with m=3 and s=1
* NGSPICE file created from pll_bgr_magic.ext - technology: sky130A

.subckt pll_bgr_magic V_OSC VDDA GNDA F_REF
X0 GNDA.t268 GNDA.t266 GNDA.t268 GNDA.t267 sky130_fd_pr__nfet_01v8 ad=0.5 pd=2.5 as=0 ps=0 w=2 l=0.6
X1 a_5970_4630.t5 V_CONT.t8 a_6200_5250.t1 VDDA.t264 sky130_fd_pr__pfet_01v8 ad=0.25 pd=1.5 as=0.25 ps=1.5 w=1 l=0.15
X2 GNDA.t92 a_6200_5250.t4 a_6200_5250.t5 GNDA.t91 sky130_fd_pr__nfet_01v8 ad=0.125 pd=1 as=0.125 ps=1 w=0.5 l=0.15
X3 GNDA.t282 pfd_8_0.F_b.t3 pfd_8_0.F.t2 GNDA.t281 sky130_fd_pr__nfet_01v8 ad=0.4 pd=2.8 as=0.2 ps=1.4 w=1 l=0.15
X4 a_6330_n1530.t2 VCO_FD_magic_0.div120_2_0.div4.t2 VDDA.t56 VDDA.t55 sky130_fd_pr__pfet_01v8 ad=0.2 pd=1.8 as=0.1 ps=0.9 w=0.5 l=0.15
X5 bgr_0.V_TOP.t13 bgr_0.1st_Vout_1.t11 VDDA.t403 VDDA.t402 sky130_fd_pr__pfet_01v8 ad=0.2 pd=1.4 as=0.2 ps=1.4 w=1 l=0.2
X6 pfd_8_0.QB_b.t2 pfd_8_0.QB.t3 a_n30_630.t1 VDDA.t89 sky130_fd_pr__pfet_01v8 ad=0.8 pd=4.8 as=0.4 ps=2.4 w=2 l=0.15
X7 VCO_FD_magic_0.vco2_3_0.V9.t1 V_OSC.t2 VCO_FD_magic_0.vco2_3_0.V6.t1 VDDA.t219 sky130_fd_pr__pfet_01v8 ad=0.4 pd=2.8 as=0.4 ps=2.8 w=1 l=0.15
X8 bgr_0.1st_Vout_2.t11 bgr_0.cap_res2.t20 sky130_fd_pr__cap_mim_m3_1 l=2 w=2
X9 bgr_0.Vin+.t5 bgr_0.V_TOP.t14 VDDA.t126 VDDA.t125 sky130_fd_pr__pfet_01v8 ad=0.6 pd=3.4 as=0.6 ps=3.4 w=3 l=0.5
X10 BGR_CURRENT_OUT.t14 bgr_0.V2.t10 VDDA.t411 VDDA.t410 sky130_fd_pr__pfet_01v8 ad=0.2 pd=1.4 as=0.2 ps=1.4 w=1 l=0.15
X11 BGR_CURRENT_OUT.t13 bgr_0.V2.t11 VDDA.t413 VDDA.t412 sky130_fd_pr__pfet_01v8 ad=0.2 pd=1.4 as=0.2 ps=1.4 w=1 l=0.15
X12 bgr_0.V2.t9 VDDA.t335 VDDA.t337 VDDA.t336 sky130_fd_pr__pfet_01v8 ad=0.2 pd=1.4 as=0.4 ps=2.8 w=1 l=0.2
X13 bgr_0.1st_Vout_2.t12 bgr_0.cap_res2.t19 sky130_fd_pr__cap_mim_m3_1 l=2 w=2
X14 VCO_FD_magic_0.div120_2_0.div5_2_0.J.t3 VCO_FD_magic_0.div120_2_0.div24.t3 GNDA.t323 GNDA.t322 sky130_fd_pr__nfet_01v8 ad=0.2 pd=1.8 as=0.1 ps=0.9 w=0.5 l=0.15
X15 GNDA.t34 VCO_FD_magic_0.div120_2_0.div5_2_0.J.t4 VCO_FD_magic_0.div120_2_0.div5_2_0.Q2_b.t0 GNDA.t33 sky130_fd_pr__nfet_01v8 ad=0.1 pd=0.9 as=0.2 ps=1.8 w=0.5 l=0.15
X16 VDDA.t257 pfd_8_0.Reset.t2 a_1390_630.t1 VDDA.t256 sky130_fd_pr__pfet_01v8 ad=0.8 pd=4.8 as=0.4 ps=2.4 w=2 l=0.15
X17 bgr_0.V_p_2.t9 bgr_0.V1.t7 a_n1450_5080.t14 GNDA.t89 sky130_fd_pr__nfet_01v8 ad=0.1 pd=0.9 as=0.1 ps=0.9 w=0.5 l=0.2
X18 bgr_0.1st_Vout_1.t12 bgr_0.cap_res1.t20 sky130_fd_pr__cap_mim_m3_1 l=2 w=2
X19 pfd_8_0.E.t1 pfd_8_0.E_b.t3 a_870_1390.t1 VDDA.t238 sky130_fd_pr__pfet_01v8 ad=0.8 pd=4.8 as=0.4 ps=2.4 w=2 l=0.15
X20 GNDA.t98 VCO_FD_magic_0.div120_2_0.div3_3_0.H.t4 VCO_FD_magic_0.div120_2_0.div3_3_0.I.t1 GNDA.t97 sky130_fd_pr__nfet_01v8 ad=0.1 pd=0.9 as=0.2 ps=1.8 w=0.5 l=0.15
X21 VDDA.t6 VCO_FD_magic_0.div120_2_0.div2.t2 a_7630_n1530.t2 VDDA.t5 sky130_fd_pr__pfet_01v8 ad=0.1 pd=0.9 as=0.2 ps=1.8 w=0.5 l=0.15
X22 pfd_8_0.UP_b.t2 pfd_8_0.UP.t2 VDDA.t4 VDDA.t3 sky130_fd_pr__pfet_01v8 ad=1 pd=5 as=1 ps=5 w=2 l=0.15
X23 pfd_8_0.UP_input.t3 pfd_8_0.UP_b.t0 sky130_fd_pr__cap_mim_m3_1 l=6.3 w=5.2
X24 GNDA.t221 GNDA.t260 bgr_0.sky130_fd_pr__rf_pnp_05v5_W3p40L3p40_25.Emitter.t8 sky130_fd_pr__pnp_05v5_W3p40L3p40
**devattr s=462400,2720
X25 VDDA.t27 VCO_FD_magic_0.vco2_3_0.V1.t3 VCO_FD_magic_0.vco2_3_0.V4.t0 VDDA.t26 sky130_fd_pr__pfet_01v8 ad=0.8 pd=4.8 as=0.8 ps=4.8 w=2 l=1.5
X26 GNDA.t68 pfd_8_0.QB.t4 pfd_8_0.QB_b.t1 GNDA.t67 sky130_fd_pr__nfet_01v8 ad=0.4 pd=2.8 as=0.2 ps=1.4 w=1 l=0.15
X27 VDDA.t42 pfd_8_0.opamp_out.t10 opamp_cell_4_0.VIN+.t3 VDDA.t41 sky130_fd_pr__pfet_01v8 ad=0.5 pd=2.5 as=0.5 ps=2.5 w=2 l=0.6
X28 opamp_cell_4_0.n_right.t1 opamp_cell_4_0.n_left.t6 VDDA.t230 VDDA.t229 sky130_fd_pr__pfet_01v8 ad=0.25 pd=1.5 as=0.25 ps=1.5 w=1 l=0.15
X29 GNDA.t221 GNDA.t265 bgr_0.sky130_fd_pr__rf_pnp_05v5_W3p40L3p40_25.Emitter.t7 sky130_fd_pr__pnp_05v5_W3p40L3p40
**devattr s=462400,2720
X30 bgr_0.1st_Vout_1.t13 bgr_0.cap_res1.t19 sky130_fd_pr__cap_mim_m3_1 l=2 w=2
X31 pfd_8_0.opamp_out.t7 opamp_cell_4_0.n_right.t5 VDDA.t218 VDDA.t217 sky130_fd_pr__pfet_01v8 ad=0.25 pd=1.5 as=0.25 ps=1.5 w=1 l=0.15
X32 opamp_cell_4_0.n_right.t3 opamp_cell_4_0.VIN+.t6 a_6320_5840.t9 GNDA.t188 sky130_fd_pr__nfet_01v8 ad=0.125 pd=1 as=0.125 ps=1 w=0.5 l=0.15
X33 GNDA.t190 VCO_FD_magic_0.div120_2_0.div8.t2 VCO_FD_magic_0.div120_2_0.div2_4_0.B.t0 GNDA.t189 sky130_fd_pr__nfet_01v8 ad=0.1 pd=0.9 as=0.1 ps=0.9 w=0.5 l=0.15
X34 pfd_8_0.opamp_out.t9 a_6490_4630.t5 GNDA.t316 GNDA.t315 sky130_fd_pr__nfet_01v8 ad=0.125 pd=1 as=0.125 ps=1 w=0.5 l=0.15
X35 bgr_0.1st_Vout_1.t9 bgr_0.V_mir1.t17 VDDA.t359 VDDA.t358 sky130_fd_pr__pfet_01v8 ad=0.2 pd=1.4 as=0.2 ps=1.4 w=1 l=0.2
X36 VDDA.t262 GNDA.t328 VCO_FD_magic_0.vco2_3_0.V4.t2 VDDA.t196 sky130_fd_pr__pfet_01v8 ad=0.4 pd=2.8 as=0.4 ps=2.8 w=1 l=0.15
X37 GNDA.t302 pfd_8_0.Reset.t3 pfd_8_0.F_b.t2 GNDA.t301 sky130_fd_pr__nfet_01v8 ad=0.4 pd=2.8 as=0.2 ps=1.4 w=1 l=0.15
X38 a_3280_11518.t1 bgr_0.Vin-.t1 GNDA.t187 sky130_fd_pr__res_xhigh_po_0p35 l=6
X39 bgr_0.V_TOP.t15 VDDA.t127 sky130_fd_pr__cap_mim_m3_1 l=2 w=2
X40 VDDA.t54 a_6330_n1530.t3 VCO_FD_magic_0.div120_2_0.div8.t1 VDDA.t53 sky130_fd_pr__pfet_01v8 ad=0.2 pd=1.8 as=0.2 ps=1.8 w=0.5 l=0.15
X41 bgr_0.V_TOP.t16 VDDA.t94 sky130_fd_pr__cap_mim_m3_1 l=2 w=2
X42 VCO_FD_magic_0.div120_2_0.div5_2_0.A.t2 VCO_FD_magic_0.div120_2_0.div5_2_0.Q2_b.t2 VDDA.t44 VDDA.t43 sky130_fd_pr__pfet_01v8 ad=0.2 pd=1.8 as=0.1 ps=0.9 w=0.5 l=0.15
X43 bgr_0.1st_Vout_1.t14 bgr_0.cap_res1.t18 sky130_fd_pr__cap_mim_m3_1 l=2 w=2
X44 GNDA.t145 BGR_CURRENT_OUT.t3 BGR_CURRENT_OUT.t4 GNDA.t144 sky130_fd_pr__nfet_01v8 ad=0.5 pd=2.5 as=0.5 ps=2.5 w=2 l=0.6
X45 VCO_FD_magic_0.div120_2_0.div2_4_2.A.t1 VCO_FD_magic_0.div120_2_0.div4.t3 VDDA.t58 VDDA.t57 sky130_fd_pr__pfet_01v8 ad=0.2 pd=1.8 as=0.1 ps=0.9 w=0.5 l=0.15
X46 VDDA.t18 opamp_cell_4_0.p_bias.t6 opamp_cell_4_0.p_bias.t7 VDDA.t17 sky130_fd_pr__pfet_01v8 ad=0.625 pd=3 as=0.625 ps=3 w=2.5 l=0.5
X47 VDDA.t8 a_n1450_5080.t10 a_n1450_5080.t11 VDDA.t7 sky130_fd_pr__pfet_01v8 ad=0.2 pd=1.4 as=0.2 ps=1.4 w=1 l=0.2
X48 BGR_CURRENT_OUT.t12 bgr_0.V2.t12 VDDA.t173 VDDA.t172 sky130_fd_pr__pfet_01v8 ad=0.2 pd=1.4 as=0.2 ps=1.4 w=1 l=0.15
X49 VDDA.t73 VCO_FD_magic_0.div120_2_0.div5_2_0.E.t2 VCO_FD_magic_0.div120_2_0.div5_2_0.F.t0 VDDA.t72 sky130_fd_pr__pfet_01v8 ad=0.1 pd=0.9 as=0.1 ps=0.9 w=0.5 l=0.15
X50 VCO_FD_magic_0.div120_2_0.div2_4_2.B.t0 a_7630_n1530.t3 VCO_FD_magic_0.div120_2_0.div2_4_2.A.t0 GNDA.t44 sky130_fd_pr__nfet_01v8 ad=0.1 pd=0.9 as=0.2 ps=1.8 w=0.5 l=0.15
X51 VDDA.t200 bgr_0.1st_Vout_2.t13 bgr_0.V2.t6 VDDA.t199 sky130_fd_pr__pfet_01v8 ad=0.2 pd=1.4 as=0.2 ps=1.4 w=1 l=0.2
X52 bgr_0.1st_Vout_1.t8 bgr_0.V_mir1.t18 VDDA.t357 VDDA.t356 sky130_fd_pr__pfet_01v8 ad=0.2 pd=1.4 as=0.2 ps=1.4 w=1 l=0.2
X53 bgr_0.V_TOP.t17 VDDA.t95 sky130_fd_pr__cap_mim_m3_1 l=2 w=2
X54 bgr_0.cap_res2.t0 bgr_0.V2.t0 GNDA.t76 sky130_fd_pr__res_high_po_0p35 l=2.05
X55 pfd_8_0.E.t0 pfd_8_0.QA_b.t3 GNDA.t194 GNDA.t193 sky130_fd_pr__nfet_01v8 ad=0.2 pd=1.4 as=0.4 ps=2.8 w=1 l=0.15
X56 bgr_0.Vin-.t7 bgr_0.V_TOP.t18 VDDA.t131 VDDA.t130 sky130_fd_pr__pfet_01v8 ad=0.6 pd=3.4 as=0.6 ps=3.4 w=3 l=0.5
X57 bgr_0.V_TOP.t7 VDDA.t332 VDDA.t334 VDDA.t333 sky130_fd_pr__pfet_01v8 ad=0.2 pd=1.4 as=0.45 ps=2.9 w=1 l=0.15
X58 VDDA.t175 bgr_0.V2.t13 bgr_0.V_CUR_REF_REG.t9 VDDA.t174 sky130_fd_pr__pfet_01v8 ad=0.2 pd=1.4 as=0.2 ps=1.4 w=1 l=0.15
X59 VDDA.t60 bgr_0.1st_Vout_1.t15 bgr_0.V_TOP.t12 VDDA.t59 sky130_fd_pr__pfet_01v8 ad=0.2 pd=1.4 as=0.2 ps=1.4 w=1 l=0.2
X60 bgr_0.1st_Vout_2.t7 bgr_0.V_CUR_REF_REG.t13 bgr_0.V_p_2.t4 GNDA.t192 sky130_fd_pr__nfet_01v8 ad=0.1 pd=0.9 as=0.1 ps=0.9 w=0.5 l=0.2
X61 bgr_0.1st_Vout_2.t14 bgr_0.cap_res2.t18 sky130_fd_pr__cap_mim_m3_1 l=2 w=2
X62 VDDA.t374 opamp_cell_4_0.p_bias.t9 a_5970_4630.t11 VDDA.t373 sky130_fd_pr__pfet_01v8 ad=0.625 pd=3 as=0.625 ps=3 w=2.5 l=0.5
X63 bgr_0.1st_Vout_1.t16 bgr_0.cap_res1.t17 sky130_fd_pr__cap_mim_m3_1 l=2 w=2
X64 a_6200_5250.t0 V_CONT.t9 a_5970_4630.t4 VDDA.t263 sky130_fd_pr__pfet_01v8 ad=0.25 pd=1.5 as=0.25 ps=1.5 w=1 l=0.15
X65 a_6200_5250.t3 a_6200_5250.t2 GNDA.t13 GNDA.t12 sky130_fd_pr__nfet_01v8 ad=0.125 pd=1 as=0.125 ps=1 w=0.5 l=0.15
X66 VDDA.t108 VCO_FD_magic_0.div120_2_0.div3_3_0.A.t2 VCO_FD_magic_0.div120_2_0.div3_3_0.C.t0 VDDA.t107 sky130_fd_pr__pfet_01v8 ad=0.1 pd=0.9 as=0.2 ps=1.8 w=0.5 l=0.15
X67 VDDA.t372 VCO_FD_magic_0.div120_2_0.div2_4_1.A.t2 VCO_FD_magic_0.div120_2_0.div2_4_1.C.t2 VDDA.t371 sky130_fd_pr__pfet_01v8 ad=0.1 pd=0.9 as=0.2 ps=1.8 w=0.5 l=0.15
X68 bgr_0.1st_Vout_2.t15 bgr_0.cap_res2.t17 sky130_fd_pr__cap_mim_m3_1 l=2 w=2
X69 VDDA.t331 VDDA.t328 VDDA.t330 VDDA.t329 sky130_fd_pr__pfet_01v8 ad=1 pd=5 as=0 ps=0 w=2 l=0.6
X70 VCO_FD_magic_0.div120_2_0.div3_3_0.C.t3 VCO_FD_magic_0.div120_2_0.div3_3_0.CLK.t3 GNDA.t198 GNDA.t197 sky130_fd_pr__nfet_01v8 ad=0.1 pd=0.9 as=0.1 ps=0.9 w=0.5 l=0.15
X71 VCO_FD_magic_0.div120_2_0.div3_3_0.CLK.t0 VCO_FD_magic_0.div120_2_0.div8.t3 GNDA.t106 GNDA.t105 sky130_fd_pr__nfet_01v8 ad=0.2 pd=1.8 as=0.1 ps=0.9 w=0.5 l=0.15
X72 bgr_0.1st_Vout_2.t5 bgr_0.V_CUR_REF_REG.t14 bgr_0.V_p_2.t2 GNDA.t171 sky130_fd_pr__nfet_01v8 ad=0.1 pd=0.9 as=0.1 ps=0.9 w=0.5 l=0.2
X73 a_8930_n1530.t0 V_OSC.t3 GNDA.t196 GNDA.t195 sky130_fd_pr__nfet_01v8 ad=0.2 pd=1.8 as=0.1 ps=0.9 w=0.5 l=0.15
X74 VDDA.t327 VDDA.t325 VDDA.t327 VDDA.t326 sky130_fd_pr__pfet_01v8 ad=0.5 pd=2.5 as=0 ps=0 w=2 l=0.6
X75 a_n30_630.t0 F_VCO.t2 VDDA.t82 VDDA.t81 sky130_fd_pr__pfet_01v8 ad=0.4 pd=2.4 as=0.8 ps=4.8 w=2 l=0.15
X76 VDDA.t422 pfd_8_0.UP_input.t4 V_CONT.t7 VDDA.t421 sky130_fd_pr__pfet_01v8 ad=0.5 pd=2.5 as=0.5 ps=2.5 w=2 l=0.6
X77 a_6220_5810.t8 a_6220_5810.t7 GNDA.t128 GNDA.t127 sky130_fd_pr__nfet_01v8 ad=0.3125 pd=1.75 as=0.3125 ps=1.75 w=1.25 l=0.5
X78 VDDA.t65 bgr_0.1st_Vout_1.t17 bgr_0.V_TOP.t11 VDDA.t64 sky130_fd_pr__pfet_01v8 ad=0.2 pd=1.4 as=0.2 ps=1.4 w=1 l=0.2
X79 VDDA.t133 bgr_0.V_TOP.t19 a_n1130_7570.t5 VDDA.t132 sky130_fd_pr__pfet_01v8 ad=0.6 pd=3.4 as=0.6 ps=3.4 w=3 l=0.5
X80 bgr_0.1st_Vout_1.t18 bgr_0.cap_res1.t16 sky130_fd_pr__cap_mim_m3_1 l=2 w=2
X81 VCO_FD_magic_0.div120_2_0.div5_2_0.G.t1 VCO_FD_magic_0.div120_2_0.div24.t4 VCO_FD_magic_0.div120_2_0.div5_2_0.H.t1 GNDA.t216 sky130_fd_pr__nfet_01v8 ad=0.2 pd=1.8 as=0.1 ps=0.9 w=0.5 l=0.15
X82 GNDA.t87 F_VCO.t3 VCO_FD_magic_0.div120_2_0.div5_2_0.I.t2 GNDA.t86 sky130_fd_pr__nfet_01v8 ad=0.1 pd=0.9 as=0.2 ps=1.8 w=0.5 l=0.15
X83 GNDA.t290 VCO_FD_magic_0.div120_2_0.div5_2_0.A.t3 VCO_FD_magic_0.div120_2_0.div5_2_0.C.t1 GNDA.t289 sky130_fd_pr__nfet_01v8 ad=0.2 pd=1.8 as=0.1 ps=0.9 w=0.5 l=0.15
X84 VDDA.t386 a_2200_180.t2 a_1870_180.t1 VDDA.t385 sky130_fd_pr__pfet_01v8 ad=0.8 pd=4.8 as=0.8 ps=4.8 w=2 l=0.15
X85 VCO_FD_magic_0.div120_2_0.div2_4_0.C.t3 a_6330_n1530.t4 GNDA.t113 GNDA.t112 sky130_fd_pr__nfet_01v8 ad=0.2 pd=1.8 as=0.1 ps=0.9 w=0.5 l=0.15
X86 GNDA.t176 VCO_FD_magic_0.div120_2_0.div2_4_0.C.t4 VCO_FD_magic_0.div120_2_0.div8.t0 GNDA.t175 sky130_fd_pr__nfet_01v8 ad=0.1 pd=0.9 as=0.2 ps=1.8 w=0.5 l=0.15
X87 bgr_0.V_TOP.t20 VDDA.t102 sky130_fd_pr__cap_mim_m3_1 l=2 w=2
X88 a_6320_5840.t2 a_6220_5810.t9 GNDA.t130 GNDA.t129 sky130_fd_pr__nfet_01v8 ad=0.3125 pd=1.75 as=0.3125 ps=1.75 w=1.25 l=0.5
X89 pfd_8_0.QA_b.t2 F_REF.t0 GNDA.t109 GNDA.t108 sky130_fd_pr__nfet_01v8 ad=0.2 pd=1.4 as=0.4 ps=2.8 w=1 l=0.15
X90 VCO_FD_magic_0.div120_2_0.div3_3_0.H.t1 VCO_FD_magic_0.div120_2_0.div3_3_0.E.t3 VDDA.t177 VDDA.t176 sky130_fd_pr__pfet_01v8 ad=0.2 pd=1.8 as=0.1 ps=0.9 w=0.5 l=0.15
X91 BGR_CURRENT_OUT.t11 bgr_0.V2.t14 VDDA.t193 VDDA.t192 sky130_fd_pr__pfet_01v8 ad=0.2 pd=1.4 as=0.2 ps=1.4 w=1 l=0.15
X92 a_n1450_5080.t16 bgr_0.V1.t8 bgr_0.V_p_2.t8 GNDA.t138 sky130_fd_pr__nfet_01v8 ad=0.1 pd=0.9 as=0.1 ps=0.9 w=0.5 l=0.2
X93 VCO_FD_magic_0.div120_2_0.div3_3_0.E.t2 VCO_FD_magic_0.div120_2_0.div3_3_0.D.t2 VDDA.t390 VDDA.t389 sky130_fd_pr__pfet_01v8 ad=0.2 pd=1.8 as=0.1 ps=0.9 w=0.5 l=0.15
X94 pfd_8_0.QB_b.t0 F_VCO.t4 GNDA.t23 GNDA.t22 sky130_fd_pr__nfet_01v8 ad=0.2 pd=1.4 as=0.4 ps=2.8 w=1 l=0.15
X95 a_5970_4630.t3 opamp_cell_4_0.p_bias.t10 VDDA.t216 VDDA.t215 sky130_fd_pr__pfet_01v8 ad=0.625 pd=3 as=0.625 ps=3 w=2.5 l=0.5
X96 VDDA.t240 bgr_0.V_mir1.t19 bgr_0.1st_Vout_1.t6 VDDA.t239 sky130_fd_pr__pfet_01v8 ad=0.2 pd=1.4 as=0.2 ps=1.4 w=1 l=0.2
X97 GNDA.t182 VDDA.t423 bgr_0.V_p_2.t10 GNDA.t181 sky130_fd_pr__nfet_01v8 ad=1 pd=5.8 as=1 ps=5.8 w=2.5 l=5
X98 a_490_630.t1 pfd_8_0.QB_b.t3 pfd_8_0.QB.t2 VDDA.t2 sky130_fd_pr__pfet_01v8 ad=0.4 pd=2.4 as=0.8 ps=4.8 w=2 l=0.15
X99 VDDA.t365 pfd_8_0.Reset.t4 a_1390_1390.t1 VDDA.t256 sky130_fd_pr__pfet_01v8 ad=0.8 pd=4.8 as=0.4 ps=2.4 w=2 l=0.15
X100 BGR_CURRENT_OUT.t2 BGR_CURRENT_OUT.t1 GNDA.t157 GNDA.t156 sky130_fd_pr__nfet_01v8 ad=0.5 pd=2.5 as=0.5 ps=2.5 w=2 l=0.6
X101 bgr_0.1st_Vout_1.t19 bgr_0.cap_res1.t15 sky130_fd_pr__cap_mim_m3_1 l=2 w=2
X102 VDDA.t324 VDDA.t321 VDDA.t323 VDDA.t322 sky130_fd_pr__pfet_01v8 ad=0.5 pd=3 as=0 ps=0 w=1 l=0.15
X103 pfd_8_0.opamp_out.t11 a_9360_3514.t0 sky130_fd_pr__cap_mim_m3_1 l=10 w=10
X104 V_CONT.t6 loop_filter_2_0.R1_C1.t1 GNDA.t298 sky130_fd_pr__res_xhigh_po_0p35 l=7.52
X105 GNDA.t264 GNDA.t261 GNDA.t263 GNDA.t262 sky130_fd_pr__nfet_01v8 ad=0.25 pd=2 as=0 ps=0 w=0.5 l=0.15
X106 GNDA.t259 GNDA.t257 GNDA.t259 GNDA.t258 sky130_fd_pr__nfet_01v8 ad=0.3125 pd=1.75 as=0 ps=0 w=1.25 l=0.5
X107 a_2530_180.t1 a_2350_1390.t2 VDDA.t248 VDDA.t247 sky130_fd_pr__pfet_01v8 ad=0.8 pd=4.8 as=0.8 ps=4.8 w=2 l=0.15
X108 GNDA.t212 a_n1490_9910.t1 GNDA.t211 sky130_fd_pr__res_xhigh_po_0p35 l=6
X109 GNDA.t306 a_2200_180.t3 a_1870_180.t0 GNDA.t305 sky130_fd_pr__nfet_01v8 ad=0.4 pd=2.8 as=0.4 ps=2.8 w=1 l=0.15
X110 opamp_cell_4_0.p_bias.t5 opamp_cell_4_0.p_bias.t4 VDDA.t224 VDDA.t223 sky130_fd_pr__pfet_01v8 ad=0.625 pd=3 as=0.625 ps=3 w=2.5 l=0.5
X111 GNDA.t205 a_7630_n1530.t4 VCO_FD_magic_0.div120_2_0.div2_4_2.C.t2 GNDA.t204 sky130_fd_pr__nfet_01v8 ad=0.1 pd=0.9 as=0.1 ps=0.9 w=0.5 l=0.15
X112 VCO_FD_magic_0.vco2_3_0.V1.t2 V_CONT.t10 GNDA.t147 GNDA.t146 sky130_fd_pr__nfet_01v8 ad=0.4 pd=2.8 as=0.4 ps=2.8 w=1 l=0.15
X113 VDDA.t104 bgr_0.V_TOP.t21 bgr_0.Vin-.t6 VDDA.t103 sky130_fd_pr__pfet_01v8 ad=0.6 pd=3.4 as=0.6 ps=3.4 w=3 l=0.5
X114 pfd_8_0.DOWN_PFD_b.t1 pfd_8_0.QB.t5 VDDA.t69 VDDA.t68 sky130_fd_pr__pfet_01v8 ad=1 pd=5 as=1 ps=5 w=2 l=0.15
X115 VDDA.t355 bgr_0.V_mir1.t20 bgr_0.1st_Vout_1.t7 VDDA.t354 sky130_fd_pr__pfet_01v8 ad=0.2 pd=1.4 as=0.2 ps=1.4 w=1 l=0.2
X116 V_OSC.t1 VCO_FD_magic_0.vco2_3_0.V8.t2 VCO_FD_magic_0.vco2_3_0.V3.t0 GNDA.t179 sky130_fd_pr__nfet_01v8 ad=0.2 pd=1.8 as=0.2 ps=1.8 w=0.5 l=0.15
X117 pfd_8_0.QB.t1 pfd_8_0.QB_b.t4 GNDA.t19 GNDA.t18 sky130_fd_pr__nfet_01v8 ad=0.2 pd=1.4 as=0.4 ps=2.8 w=1 l=0.15
X118 V_CONT.t1 pfd_8_0.UP_input.t5 VDDA.t22 VDDA.t21 sky130_fd_pr__pfet_01v8 ad=0.5 pd=2.5 as=0.5 ps=2.5 w=2 l=0.6
X119 bgr_0.V_TOP.t22 VDDA.t128 sky130_fd_pr__cap_mim_m3_1 l=2 w=2
X120 GNDA.t46 VCO_FD_magic_0.div120_2_0.div24.t5 VCO_FD_magic_0.div120_2_0.div5_2_0.D.t3 GNDA.t45 sky130_fd_pr__nfet_01v8 ad=0.1 pd=0.9 as=0.1 ps=0.9 w=0.5 l=0.15
X121 VDDA.t320 VDDA.t318 VDDA.t320 VDDA.t319 sky130_fd_pr__pfet_01v8 ad=0.5 pd=2.5 as=0 ps=0 w=2 l=0.6
X122 bgr_0.V_mir1.t0 bgr_0.Vin-.t8 bgr_0.V_p_1.t4 GNDA.t9 sky130_fd_pr__nfet_01v8 ad=0.1 pd=0.9 as=0.1 ps=0.9 w=0.5 l=0.2
X123 VDDA.t317 VDDA.t315 bgr_0.V_TOP.t6 VDDA.t316 sky130_fd_pr__pfet_01v8 ad=0.4 pd=2.8 as=0.2 ps=1.4 w=1 l=0.15
X124 bgr_0.V_CUR_REF_REG.t8 bgr_0.V2.t15 VDDA.t195 VDDA.t194 sky130_fd_pr__pfet_01v8 ad=0.2 pd=1.4 as=0.2 ps=1.4 w=1 l=0.15
X125 bgr_0.V2.t7 VDDA.t424 GNDA.t178 GNDA.t177 sky130_fd_pr__nfet_01v8 ad=1 pd=5.8 as=1 ps=5.8 w=2.5 l=5
X126 GNDA.t256 GNDA.t253 GNDA.t255 GNDA.t254 sky130_fd_pr__nfet_01v8 ad=1 pd=5 as=0 ps=0 w=2 l=0.6
X127 GNDA.t252 GNDA.t249 GNDA.t251 GNDA.t250 sky130_fd_pr__nfet_01v8 ad=0.625 pd=3.5 as=0 ps=0 w=1.25 l=0.5
X128 pfd_8_0.UP.t1 pfd_8_0.UP_PFD_b.t2 GNDA.t135 GNDA.t134 sky130_fd_pr__nfet_01v8 ad=0.5 pd=3 as=0.5 ps=3 w=1 l=0.15
X129 bgr_0.V1.t2 VDDA.t312 VDDA.t314 VDDA.t313 sky130_fd_pr__pfet_01v8 ad=0.6 pd=3.4 as=1.2 ps=6.8 w=3 l=0.5
X130 VCO_FD_magic_0.div120_2_0.div2_4_1.C.t3 a_8930_n1530.t3 GNDA.t320 GNDA.t319 sky130_fd_pr__nfet_01v8 ad=0.1 pd=0.9 as=0.1 ps=0.9 w=0.5 l=0.15
X131 VCO_FD_magic_0.div120_2_0.div3_3_0.G.t1 VCO_FD_magic_0.div120_2_0.div3_3_0.I.t2 GNDA.t11 GNDA.t10 sky130_fd_pr__nfet_01v8 ad=0.1 pd=0.9 as=0.2 ps=1.8 w=0.5 l=0.15
X132 bgr_0.1st_Vout_2.t9 a_n1450_5080.t17 VDDA.t242 VDDA.t241 sky130_fd_pr__pfet_01v8 ad=0.2 pd=1.4 as=0.2 ps=1.4 w=1 l=0.2
X133 GNDA.t180 VDDA.t425 VCO_FD_magic_0.vco2_3_0.V3.t2 GNDA.t179 sky130_fd_pr__nfet_01v8 ad=0.2 pd=1.8 as=0.2 ps=1.8 w=0.5 l=0.15
X134 a_n2040_11368.t1 a_n1920_10290.t0 GNDA.t210 sky130_fd_pr__res_xhigh_po_0p35 l=3.35
X135 GNDA.t325 VCO_FD_magic_0.div120_2_0.div5_2_0.Q2_b.t3 VCO_FD_magic_0.div120_2_0.div5_2_0.M.t3 GNDA.t324 sky130_fd_pr__nfet_01v8 ad=0.1 pd=0.9 as=0.1 ps=0.9 w=0.5 l=0.15
X136 bgr_0.V2.t5 bgr_0.1st_Vout_2.t16 VDDA.t198 VDDA.t197 sky130_fd_pr__pfet_01v8 ad=0.2 pd=1.4 as=0.2 ps=1.4 w=1 l=0.2
X137 pfd_8_0.opamp_out.t12 a_9360_6440.t1 sky130_fd_pr__cap_mim_m3_1 l=10 w=10
X138 VDDA.t361 bgr_0.V_mir1.t21 bgr_0.1st_Vout_1.t10 VDDA.t360 sky130_fd_pr__pfet_01v8 ad=0.2 pd=1.4 as=0.2 ps=1.4 w=1 l=0.2
X139 pfd_8_0.DOWN_PFD_b.t0 pfd_8_0.QB.t6 GNDA.t50 GNDA.t49 sky130_fd_pr__nfet_01v8 ad=0.5 pd=3 as=0.5 ps=3 w=1 l=0.15
X140 GNDA.t137 F_VCO.t5 VCO_FD_magic_0.div120_2_0.div5_2_0.L.t1 GNDA.t136 sky130_fd_pr__nfet_01v8 ad=0.2 pd=1.8 as=0.1 ps=0.9 w=0.5 l=0.15
X141 BGR_CURRENT_OUT.t16 VDDA.t309 VDDA.t311 VDDA.t310 sky130_fd_pr__pfet_01v8 ad=0.2 pd=1.4 as=0.4 ps=2.8 w=1 l=0.15
X142 pfd_8_0.E_b.t1 pfd_8_0.E.t3 GNDA.t276 GNDA.t275 sky130_fd_pr__nfet_01v8 ad=0.2 pd=1.4 as=0.4 ps=2.8 w=1 l=0.15
X143 GNDA.t248 GNDA.t245 GNDA.t247 GNDA.t246 sky130_fd_pr__nfet_01v8 ad=1 pd=5 as=0 ps=0 w=2 l=0.6
X144 pfd_8_0.UP_input.t1 pfd_8_0.UP.t3 VDDA.t46 VDDA.t45 sky130_fd_pr__pfet_01v8 ad=1 pd=5 as=1 ps=5 w=2 l=0.15
X145 GNDA.t85 a_6220_5810.t10 a_6320_5840.t1 GNDA.t84 sky130_fd_pr__nfet_01v8 ad=0.3125 pd=1.75 as=0.3125 ps=1.75 w=1.25 l=0.5
X146 bgr_0.1st_Vout_1.t5 bgr_0.V_mir1.t22 VDDA.t214 VDDA.t213 sky130_fd_pr__pfet_01v8 ad=0.2 pd=1.4 as=0.2 ps=1.4 w=1 l=0.2
X147 pfd_8_0.DOWN_b.t0 GNDA.t329 pfd_8_0.DOWN_PFD_b.t2 VDDA.t105 sky130_fd_pr__pfet_01v8 ad=1 pd=5 as=1 ps=5 w=2 l=0.15
X148 VCO_FD_magic_0.div120_2_0.div5_2_0.J.t0 VCO_FD_magic_0.div120_2_0.div5_2_0.G.t3 VDDA.t226 VDDA.t225 sky130_fd_pr__pfet_01v8 ad=0.2 pd=1.8 as=0.1 ps=0.9 w=0.5 l=0.15
X149 bgr_0.1st_Vout_2.t17 bgr_0.cap_res2.t16 sky130_fd_pr__cap_mim_m3_1 l=2 w=2
X150 bgr_0.1st_Vout_1.t20 bgr_0.cap_res1.t14 sky130_fd_pr__cap_mim_m3_1 l=2 w=2
X151 GNDA.t314 bgr_0.V_CUR_REF_REG.t12 GNDA.t313 sky130_fd_pr__res_xhigh_po_0p35 l=1
X152 GNDA.t164 a_6220_5810.t5 a_6220_5810.t6 GNDA.t163 sky130_fd_pr__nfet_01v8 ad=0.3125 pd=1.75 as=0.3125 ps=1.75 w=1.25 l=0.5
X153 GNDA.t244 GNDA.t241 GNDA.t243 GNDA.t242 sky130_fd_pr__nfet_01v8 ad=1 pd=5 as=0 ps=0 w=2 l=0.6
X154 bgr_0.1st_Vout_1.t3 bgr_0.Vin+.t6 bgr_0.V_p_1.t9 GNDA.t173 sky130_fd_pr__nfet_01v8 ad=0.1 pd=0.9 as=0.1 ps=0.9 w=0.5 l=0.2
X155 a_3280_11518.t0 a_3160_9910.t0 GNDA.t59 sky130_fd_pr__res_xhigh_po_0p35 l=6
X156 a_5970_4630.t10 a_5970_4630.t9 a_5970_4630.t10 VDDA.t266 sky130_fd_pr__pfet_01v8 ad=0.25 pd=1.5 as=0 ps=0 w=1 l=0.15
X157 bgr_0.1st_Vout_1.t21 bgr_0.cap_res1.t13 sky130_fd_pr__cap_mim_m3_1 l=2 w=2
X158 GNDA.t240 GNDA.t238 GNDA.t240 GNDA.t239 sky130_fd_pr__nfet_01v8 ad=0.125 pd=1 as=0 ps=0 w=0.5 l=0.15
X159 VDDA.t246 pfd_8_0.UP_input.t6 V_CONT.t4 VDDA.t245 sky130_fd_pr__pfet_01v8 ad=0.5 pd=2.5 as=0.5 ps=2.5 w=2 l=0.6
X160 bgr_0.V_CUR_REF_REG.t7 bgr_0.V2.t16 VDDA.t382 VDDA.t381 sky130_fd_pr__pfet_01v8 ad=0.2 pd=1.4 as=0.2 ps=1.4 w=1 l=0.15
X161 bgr_0.V_CUR_REF_REG.t6 bgr_0.V2.t17 VDDA.t384 VDDA.t383 sky130_fd_pr__pfet_01v8 ad=0.2 pd=1.4 as=0.2 ps=1.4 w=1 l=0.15
X162 pfd_8_0.DOWN_b.t1 VDDA.t426 pfd_8_0.DOWN_PFD_b.t3 GNDA.t73 sky130_fd_pr__nfet_01v8 ad=0.5 pd=3 as=0.5 ps=3 w=1 l=0.15
X163 bgr_0.V_TOP.t23 VDDA.t129 sky130_fd_pr__cap_mim_m3_1 l=2 w=2
X164 GNDA.t330 loop_filter_2_0.R1_C1.t0 sky130_fd_pr__cap_mim_m3_1 l=60 w=69.8
X165 VDDA.t12 VCO_FD_magic_0.div120_2_0.div4.t4 a_6330_n1530.t1 VDDA.t11 sky130_fd_pr__pfet_01v8 ad=0.1 pd=0.9 as=0.2 ps=1.8 w=0.5 l=0.15
X166 GNDA.t27 bgr_0.START_UP_NFET1.t0 bgr_0.START_UP_NFET1.t1 GNDA.t26 sky130_fd_pr__nfet_01v8 ad=0.4 pd=2.8 as=0.2 ps=1.4 w=1 l=10
X167 VDDA.t308 VDDA.t306 VDDA.t308 VDDA.t307 sky130_fd_pr__pfet_01v8 ad=0.25 pd=1.5 as=0 ps=0 w=1 l=0.15
X168 bgr_0.V_TOP.t24 VDDA.t85 sky130_fd_pr__cap_mim_m3_1 l=2 w=2
X169 bgr_0.V_p_2.t0 bgr_0.V_CUR_REF_REG.t15 bgr_0.1st_Vout_2.t0 GNDA.t17 sky130_fd_pr__nfet_01v8 ad=0.1 pd=0.9 as=0.1 ps=0.9 w=0.5 l=0.2
X170 pfd_8_0.DOWN.t1 pfd_8_0.DOWN_b.t2 VDDA.t416 VDDA.t3 sky130_fd_pr__pfet_01v8 ad=1 pd=5 as=1 ps=5 w=2 l=0.15
X171 GNDA.t237 GNDA.t235 GNDA.t237 GNDA.t236 sky130_fd_pr__nfet_01v8 ad=0.125 pd=1 as=0 ps=0 w=0.5 l=0.15
X172 bgr_0.V_mir1.t16 bgr_0.V_mir1.t15 VDDA.t363 VDDA.t362 sky130_fd_pr__pfet_01v8 ad=0.2 pd=1.4 as=0.2 ps=1.4 w=1 l=0.2
X173 bgr_0.V_p_2.t3 bgr_0.V_CUR_REF_REG.t16 bgr_0.1st_Vout_2.t6 GNDA.t191 sky130_fd_pr__nfet_01v8 ad=0.1 pd=0.9 as=0.2 ps=1.8 w=0.5 l=0.2
X174 bgr_0.V_CUR_REF_REG.t11 VDDA.t303 VDDA.t305 VDDA.t304 sky130_fd_pr__pfet_01v8 ad=0.2 pd=1.4 as=0.4 ps=2.8 w=1 l=0.15
X175 bgr_0.V_TOP.t25 VDDA.t86 sky130_fd_pr__cap_mim_m3_1 l=2 w=2
X176 bgr_0.V_TOP.t26 VDDA.t251 sky130_fd_pr__cap_mim_m3_1 l=2 w=2
X177 GNDA.t8 VCO_FD_magic_0.div120_2_0.div24.t6 VCO_FD_magic_0.div120_2_0.div5_2_0.J.t2 GNDA.t7 sky130_fd_pr__nfet_01v8 ad=0.1 pd=0.9 as=0.1 ps=0.9 w=0.5 l=0.15
X178 bgr_0.1st_Vout_2.t18 bgr_0.cap_res2.t15 sky130_fd_pr__cap_mim_m3_1 l=2 w=2
X179 GNDA.t56 VCO_FD_magic_0.div120_2_0.div3_3_0.CLK.t4 VCO_FD_magic_0.div120_2_0.div3_3_0.H.t0 GNDA.t55 sky130_fd_pr__nfet_01v8 ad=0.1 pd=0.9 as=0.1 ps=0.9 w=0.5 l=0.15
X180 bgr_0.1st_Vout_1.t22 bgr_0.cap_res1.t12 sky130_fd_pr__cap_mim_m3_1 l=2 w=2
X181 VDDA.t253 bgr_0.V_TOP.t27 bgr_0.Vin+.t4 VDDA.t252 sky130_fd_pr__pfet_01v8 ad=0.6 pd=3.4 as=0.6 ps=3.4 w=3 l=0.5
X182 VDDA.t16 VCO_FD_magic_0.div120_2_0.div3_3_0.CLK.t5 VCO_FD_magic_0.div120_2_0.div3_3_0.D.t0 VDDA.t15 sky130_fd_pr__pfet_01v8 ad=0.2 pd=1.8 as=0.2 ps=1.8 w=0.5 l=0.15
X183 GNDA.t148 V_CONT.t11 VCO_FD_magic_0.vco2_3_0.V7.t1 GNDA.t28 sky130_fd_pr__nfet_01v8 ad=0.4 pd=2.8 as=0.4 ps=2.8 w=1 l=0.15
X184 VDDA.t205 pfd_8_0.QA.t3 pfd_8_0.before_Reset.t1 VDDA.t204 sky130_fd_pr__pfet_01v8 ad=0.8 pd=4.8 as=0.4 ps=2.4 w=2 l=0.15
X185 a_2350_1390.t1 pfd_8_0.before_Reset.t3 GNDA.t312 GNDA.t311 sky130_fd_pr__nfet_01v8 ad=0.4 pd=2.8 as=0.4 ps=2.8 w=1 l=0.15
X186 GNDA.t75 VDDA.t427 VCO_FD_magic_0.vco2_3_0.V5.t2 GNDA.t74 sky130_fd_pr__nfet_01v8 ad=0.2 pd=1.8 as=0.2 ps=1.8 w=0.5 l=0.15
X187 VDDA.t237 VCO_FD_magic_0.vco2_3_0.V1.t4 VCO_FD_magic_0.vco2_3_0.V2.t1 VDDA.t236 sky130_fd_pr__pfet_01v8 ad=0.8 pd=4.8 as=0.8 ps=4.8 w=2 l=1.5
X188 pfd_8_0.UP_PFD_b.t0 pfd_8_0.QA.t4 VDDA.t113 VDDA.t68 sky130_fd_pr__pfet_01v8 ad=1 pd=5 as=1 ps=5 w=2 l=0.15
X189 bgr_0.V_mir1.t14 bgr_0.V_mir1.t13 VDDA.t353 VDDA.t352 sky130_fd_pr__pfet_01v8 ad=0.2 pd=1.4 as=0.2 ps=1.4 w=1 l=0.2
X190 pfd_8_0.DOWN.t0 pfd_8_0.DOWN_b.t3 GNDA.t48 GNDA.t47 sky130_fd_pr__nfet_01v8 ad=0.5 pd=3 as=0.5 ps=3 w=1 l=0.15
X191 bgr_0.1st_Vout_2.t1 a_n1450_5080.t18 VDDA.t40 VDDA.t39 sky130_fd_pr__pfet_01v8 ad=0.2 pd=1.4 as=0.2 ps=1.4 w=1 l=0.2
X192 opamp_cell_4_0.VIN+.t2 pfd_8_0.opamp_out.t13 VDDA.t84 VDDA.t83 sky130_fd_pr__pfet_01v8 ad=0.5 pd=2.5 as=0.5 ps=2.5 w=2 l=0.6
X193 VDDA.t1 opamp_cell_4_0.n_right.t6 pfd_8_0.opamp_out.t0 VDDA.t0 sky130_fd_pr__pfet_01v8 ad=0.25 pd=1.5 as=0.25 ps=1.5 w=1 l=0.15
X194 bgr_0.1st_Vout_2.t19 bgr_0.cap_res2.t14 sky130_fd_pr__cap_mim_m3_1 l=2 w=2
X195 VDDA.t302 VDDA.t300 BGR_CURRENT_OUT.t15 VDDA.t301 sky130_fd_pr__pfet_01v8 ad=0.4 pd=2.8 as=0.2 ps=1.4 w=1 l=0.15
X196 GNDA.t66 a_6490_4630.t6 pfd_8_0.opamp_out.t1 GNDA.t65 sky130_fd_pr__nfet_01v8 ad=0.125 pd=1 as=0.125 ps=1 w=0.5 l=0.15
X197 a_n1610_11518.t0 bgr_0.Vin+.t0 GNDA.t114 sky130_fd_pr__res_xhigh_po_0p35 l=6
X198 bgr_0.V_p_1.t3 bgr_0.Vin-.t9 bgr_0.V_mir1.t1 GNDA.t32 sky130_fd_pr__nfet_01v8 ad=0.1 pd=0.9 as=0.1 ps=0.9 w=0.5 l=0.2
X199 VDDA.t167 pfd_8_0.E.t4 a_490_1390.t1 VDDA.t166 sky130_fd_pr__pfet_01v8 ad=0.8 pd=4.8 as=0.4 ps=2.4 w=2 l=0.15
X200 VDDA.t405 bgr_0.1st_Vout_2.t20 bgr_0.V2.t4 VDDA.t404 sky130_fd_pr__pfet_01v8 ad=0.2 pd=1.4 as=0.2 ps=1.4 w=1 l=0.2
X201 VCO_FD_magic_0.div120_2_0.div3_3_0.CLK.t2 VCO_FD_magic_0.div120_2_0.div8.t4 VDDA.t207 VDDA.t206 sky130_fd_pr__pfet_01v8 ad=0.2 pd=1.8 as=0.1 ps=0.9 w=0.5 l=0.15
X202 V_CONT.t2 pfd_8_0.UP_input.t7 VDDA.t30 VDDA.t29 sky130_fd_pr__pfet_01v8 ad=0.5 pd=2.5 as=0.5 ps=2.5 w=2 l=0.6
X203 a_8930_n1530.t2 V_OSC.t4 VDDA.t388 VDDA.t387 sky130_fd_pr__pfet_01v8 ad=0.2 pd=1.8 as=0.1 ps=0.9 w=0.5 l=0.15
X204 bgr_0.1st_Vout_2.t21 bgr_0.cap_res2.t13 sky130_fd_pr__cap_mim_m3_1 l=2 w=2
X205 VDDA.t261 GNDA.t331 VCO_FD_magic_0.vco2_3_0.V2.t2 VDDA.t74 sky130_fd_pr__pfet_01v8 ad=0.4 pd=2.8 as=0.4 ps=2.8 w=1 l=0.15
X206 VDDA.t212 VCO_FD_magic_0.div120_2_0.div5_2_0.Q2_b.t4 F_VCO.t1 VDDA.t211 sky130_fd_pr__pfet_01v8 ad=0.2 pd=1.8 as=0.2 ps=1.8 w=0.5 l=0.15
X207 VDDA.t228 a_n1450_5080.t19 bgr_0.1st_Vout_2.t8 VDDA.t227 sky130_fd_pr__pfet_01v8 ad=0.2 pd=1.4 as=0.2 ps=1.4 w=1 l=0.2
X208 VDDA.t48 VCO_FD_magic_0.div120_2_0.div5_2_0.Q2_b.t5 VCO_FD_magic_0.div120_2_0.div5_2_0.A.t1 VDDA.t47 sky130_fd_pr__pfet_01v8 ad=0.1 pd=0.9 as=0.2 ps=1.8 w=0.5 l=0.15
X209 GNDA.t100 pfd_8_0.QA.t5 pfd_8_0.QA_b.t1 GNDA.t99 sky130_fd_pr__nfet_01v8 ad=0.4 pd=2.8 as=0.2 ps=1.4 w=1 l=0.15
X210 bgr_0.V_mir1.t12 bgr_0.V_mir1.t11 VDDA.t347 VDDA.t346 sky130_fd_pr__pfet_01v8 ad=0.2 pd=1.4 as=0.2 ps=1.4 w=1 l=0.2
X211 bgr_0.V_p_1.t2 bgr_0.Vin-.t10 bgr_0.V_mir1.t3 GNDA.t39 sky130_fd_pr__nfet_01v8 ad=0.1 pd=0.9 as=0.2 ps=1.8 w=0.5 l=0.2
X212 GNDA.t300 VCO_FD_magic_0.div120_2_0.div3_3_0.I.t3 VCO_FD_magic_0.div120_2_0.div24.t2 GNDA.t299 sky130_fd_pr__nfet_01v8 ad=0.2 pd=1.8 as=0.2 ps=1.8 w=0.5 l=0.15
X213 bgr_0.V_TOP.t28 VDDA.t61 sky130_fd_pr__cap_mim_m3_1 l=2 w=2
X214 bgr_0.V_CUR_REF_REG.t5 bgr_0.V2.t18 VDDA.t407 VDDA.t406 sky130_fd_pr__pfet_01v8 ad=0.2 pd=1.4 as=0.2 ps=1.4 w=1 l=0.15
X215 VCO_FD_magic_0.vco2_3_0.V9.t0 V_OSC.t5 VCO_FD_magic_0.vco2_3_0.V7.t0 GNDA.t28 sky130_fd_pr__nfet_01v8 ad=0.2 pd=1.8 as=0.2 ps=1.8 w=0.5 l=0.15
X216 VCO_FD_magic_0.div120_2_0.div5_2_0.F.t1 F_VCO.t6 VCO_FD_magic_0.div120_2_0.div5_2_0.G.t2 VDDA.t399 sky130_fd_pr__pfet_01v8 ad=0.1 pd=0.9 as=0.2 ps=1.8 w=0.5 l=0.15
X217 a_7630_n1530.t0 VCO_FD_magic_0.div120_2_0.div2.t3 GNDA.t278 GNDA.t277 sky130_fd_pr__nfet_01v8 ad=0.2 pd=1.8 as=0.1 ps=0.9 w=0.5 l=0.15
X218 VCO_FD_magic_0.div120_2_0.div5_2_0.B.t1 VCO_FD_magic_0.div120_2_0.div5_2_0.A.t4 VDDA.t191 VDDA.t190 sky130_fd_pr__pfet_01v8 ad=0.2 pd=1.8 as=0.1 ps=0.9 w=0.5 l=0.15
X219 bgr_0.1st_Vout_1.t23 bgr_0.cap_res1.t11 sky130_fd_pr__cap_mim_m3_1 l=2 w=2
X220 pfd_8_0.DOWN_input.t0 pfd_8_0.DOWN_b.t4 BGR_CURRENT_OUT.t0 VDDA.t203 sky130_fd_pr__pfet_01v8 ad=1 pd=5 as=1 ps=5 w=2 l=0.15
X221 bgr_0.V_TOP.t29 VDDA.t62 sky130_fd_pr__cap_mim_m3_1 l=2 w=2
X222 VDDA.t36 opamp_cell_4_0.n_left.t2 opamp_cell_4_0.n_left.t3 VDDA.t35 sky130_fd_pr__pfet_01v8 ad=0.25 pd=1.5 as=0.25 ps=1.5 w=1 l=0.15
X223 a_1910_2010.t1 pfd_8_0.QB.t7 GNDA.t52 GNDA.t51 sky130_fd_pr__nfet_01v8 ad=0.2 pd=1.4 as=0.4 ps=2.8 w=1 l=0.15
X224 a_6320_5840.t11 V_CONT.t12 opamp_cell_4_0.n_left.t5 GNDA.t296 sky130_fd_pr__nfet_01v8 ad=0.125 pd=1 as=0.125 ps=1 w=0.5 l=0.15
X225 VCO_FD_magic_0.vco2_3_0.V8.t0 VCO_FD_magic_0.vco2_3_0.V9.t2 VCO_FD_magic_0.vco2_3_0.V4.t1 VDDA.t196 sky130_fd_pr__pfet_01v8 ad=0.4 pd=2.8 as=0.4 ps=2.8 w=1 l=0.15
X226 bgr_0.V_p_1.t8 bgr_0.Vin+.t7 bgr_0.1st_Vout_1.t4 GNDA.t174 sky130_fd_pr__nfet_01v8 ad=0.1 pd=0.9 as=0.1 ps=0.9 w=0.5 l=0.2
X227 bgr_0.1st_Vout_2.t22 bgr_0.cap_res2.t12 sky130_fd_pr__cap_mim_m3_1 l=2 w=2
X228 VCO_FD_magic_0.div120_2_0.div3_3_0.C.t2 VCO_FD_magic_0.div120_2_0.div3_3_0.CLK.t6 GNDA.t170 GNDA.t169 sky130_fd_pr__nfet_01v8 ad=0.2 pd=1.8 as=0.1 ps=0.9 w=0.5 l=0.15
X229 VCO_FD_magic_0.div120_2_0.div2_4_1.C.t0 a_8930_n1530.t4 GNDA.t124 GNDA.t123 sky130_fd_pr__nfet_01v8 ad=0.2 pd=1.8 as=0.1 ps=0.9 w=0.5 l=0.15
X230 GNDA.t58 VCO_FD_magic_0.div120_2_0.div24.t7 VCO_FD_magic_0.div120_2_0.div3_3_0.B.t1 GNDA.t57 sky130_fd_pr__nfet_01v8 ad=0.1 pd=0.9 as=0.1 ps=0.9 w=0.5 l=0.15
X231 bgr_0.1st_Vout_1.t24 bgr_0.cap_res1.t10 sky130_fd_pr__cap_mim_m3_1 l=2 w=2
X232 GNDA.t119 VCO_FD_magic_0.div120_2_0.div2.t4 VCO_FD_magic_0.div120_2_0.div2_4_1.B.t1 GNDA.t118 sky130_fd_pr__nfet_01v8 ad=0.1 pd=0.9 as=0.1 ps=0.9 w=0.5 l=0.15
X233 VDDA.t409 bgr_0.V2.t19 BGR_CURRENT_OUT.t10 VDDA.t408 sky130_fd_pr__pfet_01v8 ad=0.2 pd=1.4 as=0.2 ps=1.4 w=1 l=0.15
X234 GNDA.t207 VDDA.t428 bgr_0.V_TOP.t3 GNDA.t206 sky130_fd_pr__nfet_01v8 ad=1.01 pd=6.15 as=1 ps=5.8 w=2.5 l=5
X235 VDDA.t80 a_n1450_5080.t20 bgr_0.1st_Vout_2.t2 VDDA.t79 sky130_fd_pr__pfet_01v8 ad=0.2 pd=1.4 as=0.2 ps=1.4 w=1 l=0.2
X236 VDDA.t142 bgr_0.V_TOP.t30 a_n1130_7570.t4 VDDA.t141 sky130_fd_pr__pfet_01v8 ad=0.6 pd=3.4 as=0.6 ps=3.4 w=3 l=0.5
X237 pfd_8_0.UP_input.t0 pfd_8_0.UP.t4 pfd_8_0.opamp_out.t5 GNDA.t0 sky130_fd_pr__nfet_01v8 ad=0.5 pd=3 as=0.5 ps=3 w=1 l=0.15
X238 bgr_0.V_TOP.t31 VDDA.t143 sky130_fd_pr__cap_mim_m3_1 l=2 w=2
X239 pfd_8_0.QA.t0 pfd_8_0.QA_b.t4 GNDA.t70 GNDA.t69 sky130_fd_pr__nfet_01v8 ad=0.2 pd=1.4 as=0.4 ps=2.8 w=1 l=0.15
X240 bgr_0.Vin-.t5 bgr_0.V_TOP.t32 VDDA.t32 VDDA.t31 sky130_fd_pr__pfet_01v8 ad=0.6 pd=3.4 as=0.6 ps=3.4 w=3 l=0.5
X241 bgr_0.V_TOP.t10 bgr_0.1st_Vout_1.t25 VDDA.t50 VDDA.t49 sky130_fd_pr__pfet_01v8 ad=0.2 pd=1.4 as=0.2 ps=1.4 w=1 l=0.2
X242 VDDA.t159 a_8930_n1530.t5 VCO_FD_magic_0.div120_2_0.div2.t0 VDDA.t158 sky130_fd_pr__pfet_01v8 ad=0.2 pd=1.8 as=0.2 ps=1.8 w=0.5 l=0.15
X243 pfd_8_0.DOWN_input.t2 pfd_8_0.DOWN.t3 BGR_CURRENT_OUT.t17 GNDA.t310 sky130_fd_pr__nfet_01v8 ad=0.5 pd=3 as=0.5 ps=3 w=1 l=0.15
X244 pfd_8_0.DOWN_input.t3 pfd_8_0.DOWN.t2 sky130_fd_pr__cap_mim_m3_1 l=3.8 w=2.7
X245 a_n1450_5080.t13 bgr_0.V1.t9 bgr_0.V_p_2.t7 GNDA.t5 sky130_fd_pr__nfet_01v8 ad=0.2 pd=1.8 as=0.1 ps=0.9 w=0.5 l=0.2
X246 GNDA.t292 a_n1920_10290.t1 GNDA.t291 sky130_fd_pr__res_xhigh_po_0p35 l=3.35