* PEX produced on Tue Jul  8 11:45:19 AM CEST 2025 using /foss/tools/osic-multitool/iic-pex.sh with m=3 and s=1
* NGSPICE file created from bgr_opamp_dummy_magic.ext - technology: sky130A

.subckt bgr_opamp_dummy_magic VDDA GNDA VOUT+ VOUT- VIN+ VIN-
X0 GNDA.t214 bgr_0.NFET_GATE_10uA.t5 two_stage_opamp_dummy_magic_0.Vb3.t4 GNDA.t213 sky130_fd_pr__nfet_01v8 ad=0.2 pd=1.4 as=0.2 ps=1.4 w=1 l=0.15
X1 bgr_0.V_TOP.t13 VDDA.t430 VDDA.t432 VDDA.t431 sky130_fd_pr__pfet_01v8 ad=0.2 pd=1.4 as=0.4 ps=2.8 w=1 l=0.15
X2 two_stage_opamp_dummy_magic_0.err_amp_mir.t14 two_stage_opamp_dummy_magic_0.err_amp_mir.t13 GNDA.t57 GNDA.t56 sky130_fd_pr__nfet_01v8 ad=0.1 pd=0.9 as=0.1 ps=0.9 w=0.5 l=0.15
X3 two_stage_opamp_dummy_magic_0.VD2.t16 GNDA.t306 GNDA.t308 GNDA.t307 sky130_fd_pr__nfet_01v8 ad=0.3 pd=1.9 as=0.6 ps=3.8 w=1.5 l=0.15
X4 VOUT-.t19 two_stage_opamp_dummy_magic_0.cap_res_Y.t138 sky130_fd_pr__cap_mim_m3_1 l=2 w=2
X5 VDDA.t468 bgr_0.V_TOP.t14 two_stage_opamp_dummy_magic_0.V_err_amp_ref.t5 VDDA.t467 sky130_fd_pr__pfet_01v8 ad=0.6 pd=3.4 as=0.6 ps=3.4 w=3 l=0.5
X6 two_stage_opamp_dummy_magic_0.V_CMFB_S3.t13 two_stage_opamp_dummy_magic_0.Y.t25 GNDA.t60 VDDA.t96 sky130_fd_pr__pfet_01v8 ad=0.4 pd=2.4 as=0.4 ps=2.4 w=2 l=0.15
X7 VOUT-.t20 two_stage_opamp_dummy_magic_0.cap_res_Y.t137 sky130_fd_pr__cap_mim_m3_1 l=2 w=2
X8 VOUT-.t21 two_stage_opamp_dummy_magic_0.cap_res_Y.t136 sky130_fd_pr__cap_mim_m3_1 l=2 w=2
X9 bgr_0.Vin+.t5 bgr_0.V_TOP.t15 VDDA.t108 VDDA.t107 sky130_fd_pr__pfet_01v8 ad=0.6 pd=3.4 as=0.6 ps=3.4 w=3 l=0.5
X10 VDDA.t271 bgr_0.V_mir1.t17 bgr_0.1st_Vout_1.t5 VDDA.t270 sky130_fd_pr__pfet_01v8 ad=0.2 pd=1.4 as=0.2 ps=1.4 w=1 l=0.2
X11 two_stage_opamp_dummy_magic_0.V_err_gate.t4 two_stage_opamp_dummy_magic_0.V_err_amp_ref.t7 two_stage_opamp_dummy_magic_0.V_err_mir_p.t4 VDDA.t122 sky130_fd_pr__pfet_01v8 ad=0.1 pd=0.9 as=0.1 ps=0.9 w=0.5 l=0.15
X12 VOUT-.t22 two_stage_opamp_dummy_magic_0.cap_res_Y.t135 sky130_fd_pr__cap_mim_m3_1 l=2 w=2
X13 bgr_0.1st_Vout_2.t11 bgr_0.cap_res2.t19 sky130_fd_pr__cap_mim_m3_1 l=2 w=2
X14 VOUT-.t23 two_stage_opamp_dummy_magic_0.cap_res_Y.t134 sky130_fd_pr__cap_mim_m3_1 l=2 w=2
X15 two_stage_opamp_dummy_magic_0.Y.t20 two_stage_opamp_dummy_magic_0.Vb2.t11 two_stage_opamp_dummy_magic_0.VD4.t25 two_stage_opamp_dummy_magic_0.VD4.t24 sky130_fd_pr__pfet_01v8 ad=0.7 pd=3.9 as=0.7 ps=3.9 w=3.5 l=0.2
X16 VDDA.t24 two_stage_opamp_dummy_magic_0.X.t25 VOUT+.t11 VDDA.t23 sky130_fd_pr__pfet_01v8 ad=1.2 pd=6.4 as=1.2 ps=6.4 w=6 l=0.15
X17 two_stage_opamp_dummy_magic_0.Y.t22 two_stage_opamp_dummy_magic_0.Vb1.t6 two_stage_opamp_dummy_magic_0.VD2.t19 GNDA.t331 sky130_fd_pr__nfet_01v8 ad=0.3 pd=1.9 as=0.3 ps=1.9 w=1.5 l=0.15
X18 bgr_0.1st_Vout_2.t10 bgr_0.V_CUR_REF_REG.t3 bgr_0.V_p_2.t9 GNDA.t355 sky130_fd_pr__nfet_01v8 ad=0.1 pd=0.9 as=0.1 ps=0.9 w=0.5 l=0.2
X19 VOUT-.t24 two_stage_opamp_dummy_magic_0.cap_res_Y.t133 sky130_fd_pr__cap_mim_m3_1 l=2 w=2
X20 VOUT-.t25 two_stage_opamp_dummy_magic_0.cap_res_Y.t132 sky130_fd_pr__cap_mim_m3_1 l=2 w=2
X21 a_6810_23838.t1 two_stage_opamp_dummy_magic_0.V_err_amp_ref.t6 GNDA.t337 sky130_fd_pr__res_xhigh_po_0p35 l=4.2
X22 a_7460_23988.t0 bgr_0.Vin+.t0 GNDA.t110 sky130_fd_pr__res_xhigh_po_0p35 l=6
X23 VDDA.t229 two_stage_opamp_dummy_magic_0.X.t26 VOUT+.t10 VDDA.t228 sky130_fd_pr__pfet_01v8 ad=1.2 pd=6.4 as=1.2 ps=6.4 w=6 l=0.15
X24 VOUT-.t26 two_stage_opamp_dummy_magic_0.cap_res_Y.t131 sky130_fd_pr__cap_mim_m3_1 l=2 w=2
X25 VOUT+.t16 GNDA.t303 GNDA.t305 GNDA.t304 sky130_fd_pr__nfet_01v8 ad=1.4 pd=7.4 as=2.8 ps=14.8 w=7 l=0.6
X26 bgr_0.1st_Vout_2.t12 bgr_0.cap_res2.t18 sky130_fd_pr__cap_mim_m3_1 l=2 w=2
X27 VDDA.t429 VDDA.t427 bgr_0.NFET_GATE_10uA.t3 VDDA.t428 sky130_fd_pr__pfet_01v8 ad=0.4 pd=2.8 as=0.2 ps=1.4 w=1 l=0.15
X28 two_stage_opamp_dummy_magic_0.V_tail_gate.t7 bgr_0.PFET_GATE_10uA.t10 VDDA.t214 VDDA.t213 sky130_fd_pr__pfet_01v8 ad=0.2 pd=1.4 as=0.2 ps=1.4 w=1 l=0.15
X29 VDDA.t182 two_stage_opamp_dummy_magic_0.V_err_gate.t14 two_stage_opamp_dummy_magic_0.V_err_mir_p.t16 VDDA.t181 sky130_fd_pr__pfet_01v8 ad=0.1 pd=0.9 as=0.1 ps=0.9 w=0.5 l=0.15
X30 VDDA.t196 bgr_0.PFET_GATE_10uA.t11 two_stage_opamp_dummy_magic_0.V_tail_gate.t6 VDDA.t195 sky130_fd_pr__pfet_01v8 ad=0.2 pd=1.4 as=0.2 ps=1.4 w=1 l=0.15
X31 VOUT+.t19 two_stage_opamp_dummy_magic_0.cap_res_X.t138 sky130_fd_pr__cap_mim_m3_1 l=2 w=2
X32 VOUT+.t20 two_stage_opamp_dummy_magic_0.cap_res_X.t137 sky130_fd_pr__cap_mim_m3_1 l=2 w=2
X33 VOUT+.t21 two_stage_opamp_dummy_magic_0.cap_res_X.t136 sky130_fd_pr__cap_mim_m3_1 l=2 w=2
X34 VOUT-.t27 two_stage_opamp_dummy_magic_0.cap_res_Y.t130 sky130_fd_pr__cap_mim_m3_1 l=2 w=2
X35 bgr_0.1st_Vout_1.t11 bgr_0.cap_res1.t20 sky130_fd_pr__cap_mim_m3_1 l=2 w=2
X36 VOUT-.t28 two_stage_opamp_dummy_magic_0.cap_res_Y.t129 sky130_fd_pr__cap_mim_m3_1 l=2 w=2
X37 VOUT-.t29 two_stage_opamp_dummy_magic_0.cap_res_Y.t128 sky130_fd_pr__cap_mim_m3_1 l=2 w=2
X38 bgr_0.1st_Vout_2.t6 bgr_0.V_mir2.t17 VDDA.t237 VDDA.t236 sky130_fd_pr__pfet_01v8 ad=0.2 pd=1.4 as=0.2 ps=1.4 w=1 l=0.2
X39 VDDA.t110 bgr_0.V_TOP.t16 bgr_0.Vin-.t7 VDDA.t109 sky130_fd_pr__pfet_01v8 ad=0.6 pd=3.4 as=0.6 ps=3.4 w=3 l=0.5
X40 VOUT+.t22 two_stage_opamp_dummy_magic_0.cap_res_X.t135 sky130_fd_pr__cap_mim_m3_1 l=2 w=2
X41 two_stage_opamp_dummy_magic_0.V_p_mir.t1 two_stage_opamp_dummy_magic_0.V_tail_gate.t12 GNDA.t147 GNDA.t146 sky130_fd_pr__nfet_01v8 ad=0.5 pd=2.9 as=0.5 ps=2.9 w=2.5 l=0.15
X42 VOUT-.t3 two_stage_opamp_dummy_magic_0.V_b_2nd_stage.t2 GNDA.t32 GNDA.t31 sky130_fd_pr__nfet_01v8 ad=1.4 pd=7.4 as=1.4 ps=7.4 w=7 l=0.6
X43 bgr_0.1st_Vout_1.t10 bgr_0.Vin+.t6 bgr_0.V_p_1.t9 GNDA.t27 sky130_fd_pr__nfet_01v8 ad=0.1 pd=0.9 as=0.1 ps=0.9 w=0.5 l=0.2
X44 VDDA.t58 two_stage_opamp_dummy_magic_0.Y.t26 VOUT-.t5 VDDA.t57 sky130_fd_pr__pfet_01v8 ad=1.2 pd=6.4 as=1.2 ps=6.4 w=6 l=0.15
X45 two_stage_opamp_dummy_magic_0.V_CMFB_S2.t10 two_stage_opamp_dummy_magic_0.X.t27 VDDA.t241 GNDA.t150 sky130_fd_pr__nfet_01v8 ad=0.6 pd=3.4 as=0.6 ps=3.4 w=3 l=0.15
X46 VOUT-.t30 two_stage_opamp_dummy_magic_0.cap_res_Y.t127 sky130_fd_pr__cap_mim_m3_1 l=2 w=2
X47 bgr_0.cap_res2.t20 bgr_0.PFET_GATE_10uA.t6 GNDA.t148 sky130_fd_pr__res_high_po_0p35 l=2.05
X48 VDDA.t426 VDDA.t424 two_stage_opamp_dummy_magic_0.V_err_gate.t11 VDDA.t425 sky130_fd_pr__pfet_01v8 ad=0.2 pd=1.8 as=0.1 ps=0.9 w=0.5 l=0.15
X49 bgr_0.1st_Vout_1.t12 bgr_0.cap_res1.t19 sky130_fd_pr__cap_mim_m3_1 l=2 w=2
X50 two_stage_opamp_dummy_magic_0.V_err_p.t18 two_stage_opamp_dummy_magic_0.V_err_gate.t15 VDDA.t15 VDDA.t14 sky130_fd_pr__pfet_01v8 ad=0.1 pd=0.9 as=0.1 ps=0.9 w=0.5 l=0.15
X51 VOUT-.t31 two_stage_opamp_dummy_magic_0.cap_res_Y.t126 sky130_fd_pr__cap_mim_m3_1 l=2 w=2
X52 VOUT+.t23 two_stage_opamp_dummy_magic_0.cap_res_X.t134 sky130_fd_pr__cap_mim_m3_1 l=2 w=2
X53 a_14560_5068.t1 two_stage_opamp_dummy_magic_0.V_tot.t0 GNDA.t67 sky130_fd_pr__res_xhigh_po_0p35 l=1.75
X54 two_stage_opamp_dummy_magic_0.Y.t0 two_stage_opamp_dummy_magic_0.Vb2.t12 two_stage_opamp_dummy_magic_0.VD4.t23 two_stage_opamp_dummy_magic_0.VD4.t22 sky130_fd_pr__pfet_01v8 ad=0.7 pd=3.9 as=0.7 ps=3.9 w=3.5 l=0.2
X55 two_stage_opamp_dummy_magic_0.V_err_p.t6 two_stage_opamp_dummy_magic_0.V_tot.t4 two_stage_opamp_dummy_magic_0.err_amp_mir.t1 VDDA.t33 sky130_fd_pr__pfet_01v8 ad=0.1 pd=0.9 as=0.1 ps=0.9 w=0.5 l=0.15
X56 two_stage_opamp_dummy_magic_0.X.t23 two_stage_opamp_dummy_magic_0.Vb1.t7 two_stage_opamp_dummy_magic_0.VD1.t10 GNDA.t344 sky130_fd_pr__nfet_01v8 ad=0.3 pd=1.9 as=0.3 ps=1.9 w=1.5 l=0.15
X57 VOUT+.t24 two_stage_opamp_dummy_magic_0.cap_res_X.t133 sky130_fd_pr__cap_mim_m3_1 l=2 w=2
X58 two_stage_opamp_dummy_magic_0.V_CMFB_S1.t13 two_stage_opamp_dummy_magic_0.X.t28 GNDA.t113 VDDA.t187 sky130_fd_pr__pfet_01v8 ad=0.4 pd=2.4 as=0.4 ps=2.4 w=2 l=0.15
X59 VDDA.t83 bgr_0.1st_Vout_1.t13 bgr_0.V_TOP.t0 VDDA.t82 sky130_fd_pr__pfet_01v8 ad=0.2 pd=1.4 as=0.2 ps=1.4 w=1 l=0.2
X60 bgr_0.V_TOP.t17 VDDA.t111 sky130_fd_pr__cap_mim_m3_1 l=2 w=2
X61 VOUT+.t25 two_stage_opamp_dummy_magic_0.cap_res_X.t132 sky130_fd_pr__cap_mim_m3_1 l=2 w=2
X62 GNDA.t26 two_stage_opamp_dummy_magic_0.V_tail_gate.t13 two_stage_opamp_dummy_magic_0.V_source.t20 GNDA.t25 sky130_fd_pr__nfet_01v8 ad=0.5 pd=2.9 as=0.5 ps=2.9 w=2.5 l=0.15
X63 GNDA.t38 two_stage_opamp_dummy_magic_0.V_tail_gate.t14 two_stage_opamp_dummy_magic_0.V_source.t19 GNDA.t37 sky130_fd_pr__nfet_01v8 ad=0.5 pd=2.9 as=0.5 ps=2.9 w=2.5 l=0.15
X64 two_stage_opamp_dummy_magic_0.V_CMFB_S4.t10 two_stage_opamp_dummy_magic_0.Y.t27 VDDA.t59 GNDA.t40 sky130_fd_pr__nfet_01v8 ad=0.6 pd=3.4 as=0.6 ps=3.4 w=3 l=0.15
X65 two_stage_opamp_dummy_magic_0.VD1.t20 VIN-.t0 two_stage_opamp_dummy_magic_0.V_source.t36 GNDA.t321 sky130_fd_pr__nfet_01v8 ad=0.3 pd=1.9 as=0.3 ps=1.9 w=1.5 l=0.15
X66 GNDA.t302 GNDA.t300 bgr_0.NFET_GATE_10uA.t0 GNDA.t301 sky130_fd_pr__nfet_01v8 ad=0.4 pd=2.8 as=0.2 ps=1.4 w=1 l=0.15
X67 bgr_0.START_UP.t5 bgr_0.V_TOP.t18 VDDA.t76 VDDA.t75 sky130_fd_pr__pfet_01v8 ad=0.6 pd=3.4 as=0.6 ps=3.4 w=3 l=0.5
X68 two_stage_opamp_dummy_magic_0.V_err_p.t17 two_stage_opamp_dummy_magic_0.V_err_gate.t16 VDDA.t17 VDDA.t16 sky130_fd_pr__pfet_01v8 ad=0.1 pd=0.9 as=0.1 ps=0.9 w=0.5 l=0.15
X69 VOUT+.t26 two_stage_opamp_dummy_magic_0.cap_res_X.t131 sky130_fd_pr__cap_mim_m3_1 l=2 w=2
X70 two_stage_opamp_dummy_magic_0.V_err_gate.t9 bgr_0.NFET_GATE_10uA.t6 GNDA.t212 GNDA.t211 sky130_fd_pr__nfet_01v8 ad=0.2 pd=1.4 as=0.2 ps=1.4 w=1 l=0.15
X71 bgr_0.1st_Vout_1.t8 bgr_0.Vin+.t7 bgr_0.V_p_1.t8 GNDA.t28 sky130_fd_pr__nfet_01v8 ad=0.2 pd=1.8 as=0.1 ps=0.9 w=0.5 l=0.2
X72 VOUT-.t32 two_stage_opamp_dummy_magic_0.cap_res_Y.t125 sky130_fd_pr__cap_mim_m3_1 l=2 w=2
X73 VOUT+.t27 two_stage_opamp_dummy_magic_0.cap_res_X.t130 sky130_fd_pr__cap_mim_m3_1 l=2 w=2
X74 two_stage_opamp_dummy_magic_0.err_amp_out.t9 two_stage_opamp_dummy_magic_0.err_amp_mir.t17 GNDA.t154 GNDA.t153 sky130_fd_pr__nfet_01v8 ad=0.1 pd=0.9 as=0.1 ps=0.9 w=0.5 l=0.15
X75 VOUT+.t28 two_stage_opamp_dummy_magic_0.cap_res_X.t129 sky130_fd_pr__cap_mim_m3_1 l=2 w=2
X76 VOUT+.t29 two_stage_opamp_dummy_magic_0.cap_res_X.t128 sky130_fd_pr__cap_mim_m3_1 l=2 w=2
X77 VOUT-.t33 two_stage_opamp_dummy_magic_0.cap_res_Y.t124 sky130_fd_pr__cap_mim_m3_1 l=2 w=2
X78 bgr_0.1st_Vout_1.t14 bgr_0.cap_res1.t18 sky130_fd_pr__cap_mim_m3_1 l=2 w=2
X79 two_stage_opamp_dummy_magic_0.VD1.t12 VIN-.t1 two_stage_opamp_dummy_magic_0.V_source.t26 GNDA.t140 sky130_fd_pr__nfet_01v8 ad=0.3 pd=1.9 as=0.3 ps=1.9 w=1.5 l=0.15
X80 bgr_0.V_TOP.t19 VDDA.t77 sky130_fd_pr__cap_mim_m3_1 l=2 w=2
X81 bgr_0.V_mir2.t16 bgr_0.V_mir2.t15 VDDA.t85 VDDA.t84 sky130_fd_pr__pfet_01v8 ad=0.2 pd=1.4 as=0.2 ps=1.4 w=1 l=0.2
X82 two_stage_opamp_dummy_magic_0.V_CMFB_S3.t15 VDDA.t421 VDDA.t423 VDDA.t422 sky130_fd_pr__pfet_01v8 ad=0.2 pd=1.4 as=0.4 ps=2.8 w=1 l=0.15
X83 VOUT+.t30 two_stage_opamp_dummy_magic_0.cap_res_X.t127 sky130_fd_pr__cap_mim_m3_1 l=2 w=2
X84 two_stage_opamp_dummy_magic_0.V_CMFB_S3.t3 bgr_0.PFET_GATE_10uA.t12 VDDA.t247 VDDA.t246 sky130_fd_pr__pfet_01v8 ad=0.2 pd=1.4 as=0.2 ps=1.4 w=1 l=0.15
X85 two_stage_opamp_dummy_magic_0.err_amp_out.t8 two_stage_opamp_dummy_magic_0.err_amp_mir.t18 GNDA.t127 GNDA.t126 sky130_fd_pr__nfet_01v8 ad=0.1 pd=0.9 as=0.1 ps=0.9 w=0.5 l=0.15
X86 VDDA.t224 bgr_0.PFET_GATE_10uA.t13 two_stage_opamp_dummy_magic_0.V_CMFB_S3.t2 VDDA.t223 sky130_fd_pr__pfet_01v8 ad=0.2 pd=1.4 as=0.2 ps=1.4 w=1 l=0.15
X87 GNDA.t299 GNDA.t297 two_stage_opamp_dummy_magic_0.X.t19 GNDA.t298 sky130_fd_pr__nfet_01v8 ad=0.6 pd=3.8 as=0.3 ps=1.9 w=1.5 l=0.15
X88 VOUT-.t34 two_stage_opamp_dummy_magic_0.cap_res_Y.t123 sky130_fd_pr__cap_mim_m3_1 l=2 w=2
X89 bgr_0.V_TOP.t20 VDDA.t78 sky130_fd_pr__cap_mim_m3_1 l=2 w=2
X90 bgr_0.1st_Vout_2.t3 bgr_0.V_CUR_REF_REG.t4 bgr_0.V_p_2.t8 GNDA.t96 sky130_fd_pr__nfet_01v8 ad=0.1 pd=0.9 as=0.1 ps=0.9 w=0.5 l=0.2
X91 two_stage_opamp_dummy_magic_0.Y.t19 GNDA.t294 GNDA.t296 GNDA.t295 sky130_fd_pr__nfet_01v8 ad=0.3 pd=1.9 as=0.6 ps=3.8 w=1.5 l=0.15
X92 VDDA.t203 two_stage_opamp_dummy_magic_0.X.t29 VOUT+.t9 VDDA.t202 sky130_fd_pr__pfet_01v8 ad=1.2 pd=6.4 as=1.2 ps=6.4 w=6 l=0.15
X93 GNDA.t293 GNDA.t291 two_stage_opamp_dummy_magic_0.VD1.t16 GNDA.t292 sky130_fd_pr__nfet_01v8 ad=0.6 pd=3.8 as=0.3 ps=1.9 w=1.5 l=0.15
X94 VOUT+.t31 two_stage_opamp_dummy_magic_0.cap_res_X.t126 sky130_fd_pr__cap_mim_m3_1 l=2 w=2
X95 two_stage_opamp_dummy_magic_0.VD3.t31 VDDA.t418 VDDA.t420 VDDA.t419 sky130_fd_pr__pfet_01v8 ad=0.7 pd=3.9 as=1.4 ps=7.8 w=3.5 l=0.2
X96 VOUT+.t32 two_stage_opamp_dummy_magic_0.cap_res_X.t125 sky130_fd_pr__cap_mim_m3_1 l=2 w=2
X97 VOUT+.t0 a_14240_2076.t0 GNDA.t4 sky130_fd_pr__res_xhigh_po_0p35 l=2.63
X98 VOUT-.t35 two_stage_opamp_dummy_magic_0.cap_res_Y.t122 sky130_fd_pr__cap_mim_m3_1 l=2 w=2
X99 VOUT+.t33 two_stage_opamp_dummy_magic_0.cap_res_X.t124 sky130_fd_pr__cap_mim_m3_1 l=2 w=2
X100 two_stage_opamp_dummy_magic_0.VD3.t37 two_stage_opamp_dummy_magic_0.VD3.t35 two_stage_opamp_dummy_magic_0.X.t24 two_stage_opamp_dummy_magic_0.VD3.t36 sky130_fd_pr__pfet_01v8 ad=1.4 pd=7.8 as=0.7 ps=3.9 w=3.5 l=0.2
X101 VDDA.t100 two_stage_opamp_dummy_magic_0.V_err_gate.t17 two_stage_opamp_dummy_magic_0.V_err_p.t16 VDDA.t99 sky130_fd_pr__pfet_01v8 ad=0.1 pd=0.9 as=0.1 ps=0.9 w=0.5 l=0.15
X102 VOUT-.t36 two_stage_opamp_dummy_magic_0.cap_res_Y.t121 sky130_fd_pr__cap_mim_m3_1 l=2 w=2
X103 bgr_0.PFET_GATE_10uA.t5 bgr_0.1st_Vout_2.t13 VDDA.t460 VDDA.t459 sky130_fd_pr__pfet_01v8 ad=0.2 pd=1.4 as=0.2 ps=1.4 w=1 l=0.2
X104 GNDA.t290 GNDA.t288 two_stage_opamp_dummy_magic_0.VD1.t15 GNDA.t289 sky130_fd_pr__nfet_01v8 ad=0.6 pd=3.8 as=0.3 ps=1.9 w=1.5 l=0.15
X105 VOUT+.t34 two_stage_opamp_dummy_magic_0.cap_res_X.t123 sky130_fd_pr__cap_mim_m3_1 l=2 w=2
X106 bgr_0.V_TOP.t21 VDDA.t44 sky130_fd_pr__cap_mim_m3_1 l=2 w=2
X107 two_stage_opamp_dummy_magic_0.V_CMFB_S2.t9 two_stage_opamp_dummy_magic_0.X.t30 VDDA.t86 GNDA.t53 sky130_fd_pr__nfet_01v8 ad=0.6 pd=3.4 as=0.6 ps=3.4 w=3 l=0.15
X108 two_stage_opamp_dummy_magic_0.V_source.t18 two_stage_opamp_dummy_magic_0.V_tail_gate.t15 GNDA.t112 GNDA.t111 sky130_fd_pr__nfet_01v8 ad=0.5 pd=2.9 as=0.5 ps=2.9 w=2.5 l=0.15
X109 bgr_0.START_UP_NFET1.t0 bgr_0.START_UP_NFET1 GNDA.t333 GNDA.t332 sky130_fd_pr__nfet_01v8 ad=0.2 pd=1.4 as=0.4 ps=2.8 w=1 l=10
X110 two_stage_opamp_dummy_magic_0.V_CMFB_S2.t8 two_stage_opamp_dummy_magic_0.X.t31 VDDA.t25 GNDA.t19 sky130_fd_pr__nfet_01v8 ad=0.6 pd=3.4 as=0.6 ps=3.4 w=3 l=0.15
X111 two_stage_opamp_dummy_magic_0.V_err_mir_p.t10 two_stage_opamp_dummy_magic_0.V_err_gate.t18 VDDA.t102 VDDA.t101 sky130_fd_pr__pfet_01v8 ad=0.1 pd=0.9 as=0.1 ps=0.9 w=0.5 l=0.15
X112 a_5190_5068.t0 two_stage_opamp_dummy_magic_0.V_CMFB_S4.t0 GNDA.t86 sky130_fd_pr__res_xhigh_po_0p35 l=1.75
X113 VOUT-.t37 two_stage_opamp_dummy_magic_0.cap_res_Y.t120 sky130_fd_pr__cap_mim_m3_1 l=2 w=2
X114 bgr_0.V_TOP.t22 VDDA.t45 sky130_fd_pr__cap_mim_m3_1 l=2 w=2
X115 GNDA.t210 bgr_0.NFET_GATE_10uA.t7 two_stage_opamp_dummy_magic_0.V_CMFB_S2.t13 GNDA.t209 sky130_fd_pr__nfet_01v8 ad=0.2 pd=1.4 as=0.2 ps=1.4 w=1 l=0.15
X116 two_stage_opamp_dummy_magic_0.V_CMFB_S2.t12 bgr_0.NFET_GATE_10uA.t8 GNDA.t208 GNDA.t207 sky130_fd_pr__nfet_01v8 ad=0.2 pd=1.4 as=0.2 ps=1.4 w=1 l=0.15
X117 VOUT+.t35 two_stage_opamp_dummy_magic_0.cap_res_X.t122 sky130_fd_pr__cap_mim_m3_1 l=2 w=2
X118 VOUT+.t36 two_stage_opamp_dummy_magic_0.cap_res_X.t121 sky130_fd_pr__cap_mim_m3_1 l=2 w=2
X119 GNDA.t103 two_stage_opamp_dummy_magic_0.V_tail_gate.t16 two_stage_opamp_dummy_magic_0.V_source.t17 GNDA.t102 sky130_fd_pr__nfet_01v8 ad=0.5 pd=2.9 as=0.5 ps=2.9 w=2.5 l=0.15
X120 two_stage_opamp_dummy_magic_0.VD3.t29 two_stage_opamp_dummy_magic_0.Vb3.t8 VDDA.t313 VDDA.t312 sky130_fd_pr__pfet_01v8 ad=0.7 pd=3.9 as=0.7 ps=3.9 w=3.5 l=0.2
X121 VOUT+.t37 two_stage_opamp_dummy_magic_0.cap_res_X.t120 sky130_fd_pr__cap_mim_m3_1 l=2 w=2
X122 VOUT+.t38 two_stage_opamp_dummy_magic_0.cap_res_X.t119 sky130_fd_pr__cap_mim_m3_1 l=2 w=2
X123 VOUT+.t39 two_stage_opamp_dummy_magic_0.cap_res_X.t118 sky130_fd_pr__cap_mim_m3_1 l=2 w=2
X124 bgr_0.1st_Vout_2.t14 bgr_0.cap_res2.t17 sky130_fd_pr__cap_mim_m3_1 l=2 w=2
X125 VOUT-.t38 two_stage_opamp_dummy_magic_0.cap_res_Y.t119 sky130_fd_pr__cap_mim_m3_1 l=2 w=2
X126 VOUT-.t39 two_stage_opamp_dummy_magic_0.cap_res_Y.t118 sky130_fd_pr__cap_mim_m3_1 l=2 w=2
X127 two_stage_opamp_dummy_magic_0.V_CMFB_S4.t9 two_stage_opamp_dummy_magic_0.Y.t28 VDDA.t94 GNDA.t58 sky130_fd_pr__nfet_01v8 ad=0.6 pd=3.4 as=0.6 ps=3.4 w=3 l=0.15
X128 VOUT-.t40 two_stage_opamp_dummy_magic_0.cap_res_Y.t117 sky130_fd_pr__cap_mim_m3_1 l=2 w=2
X129 VOUT-.t41 two_stage_opamp_dummy_magic_0.cap_res_Y.t116 sky130_fd_pr__cap_mim_m3_1 l=2 w=2
X130 two_stage_opamp_dummy_magic_0.err_amp_mir.t12 two_stage_opamp_dummy_magic_0.err_amp_mir.t11 GNDA.t101 GNDA.t100 sky130_fd_pr__nfet_01v8 ad=0.1 pd=0.9 as=0.1 ps=0.9 w=0.5 l=0.15
X131 GNDA.t317 two_stage_opamp_dummy_magic_0.V_b_2nd_stage.t3 VOUT-.t17 GNDA.t316 sky130_fd_pr__nfet_01v8 ad=1.4 pd=7.4 as=1.4 ps=7.4 w=7 l=0.6
X132 VOUT-.t42 two_stage_opamp_dummy_magic_0.cap_res_Y.t115 sky130_fd_pr__cap_mim_m3_1 l=2 w=2
X133 a_12530_23988.t0 bgr_0.Vin-.t0 GNDA.t3 sky130_fd_pr__res_xhigh_po_0p35 l=6
X134 two_stage_opamp_dummy_magic_0.VD4.t35 two_stage_opamp_dummy_magic_0.Vb3.t9 VDDA.t311 VDDA.t310 sky130_fd_pr__pfet_01v8 ad=0.7 pd=3.9 as=0.7 ps=3.9 w=3.5 l=0.2
X135 two_stage_opamp_dummy_magic_0.V_CMFB_S3.t12 two_stage_opamp_dummy_magic_0.Y.t29 GNDA.t59 VDDA.t95 sky130_fd_pr__pfet_01v8 ad=0.4 pd=2.4 as=0.4 ps=2.4 w=2 l=0.15
X136 bgr_0.1st_Vout_2.t2 bgr_0.V_mir2.t18 VDDA.t98 VDDA.t97 sky130_fd_pr__pfet_01v8 ad=0.2 pd=1.4 as=0.2 ps=1.4 w=1 l=0.2
X137 two_stage_opamp_dummy_magic_0.VD4.t21 two_stage_opamp_dummy_magic_0.Vb2.t13 two_stage_opamp_dummy_magic_0.Y.t11 two_stage_opamp_dummy_magic_0.VD4.t20 sky130_fd_pr__pfet_01v8 ad=0.7 pd=3.9 as=0.7 ps=3.9 w=3.5 l=0.2
X138 VOUT+.t40 two_stage_opamp_dummy_magic_0.cap_res_X.t117 sky130_fd_pr__cap_mim_m3_1 l=2 w=2
X139 two_stage_opamp_dummy_magic_0.VD1.t9 two_stage_opamp_dummy_magic_0.Vb1.t8 two_stage_opamp_dummy_magic_0.X.t16 GNDA.t119 sky130_fd_pr__nfet_01v8 ad=0.3 pd=1.9 as=0.3 ps=1.9 w=1.5 l=0.15
X140 VOUT+.t41 two_stage_opamp_dummy_magic_0.cap_res_X.t116 sky130_fd_pr__cap_mim_m3_1 l=2 w=2
X141 bgr_0.1st_Vout_2.t15 bgr_0.cap_res2.t16 sky130_fd_pr__cap_mim_m3_1 l=2 w=2
X142 two_stage_opamp_dummy_magic_0.Y.t6 two_stage_opamp_dummy_magic_0.Vb1.t9 two_stage_opamp_dummy_magic_0.VD2.t6 GNDA.t88 sky130_fd_pr__nfet_01v8 ad=0.3 pd=1.9 as=0.3 ps=1.9 w=1.5 l=0.15
X143 VOUT+.t42 two_stage_opamp_dummy_magic_0.cap_res_X.t115 sky130_fd_pr__cap_mim_m3_1 l=2 w=2
X144 VOUT-.t43 two_stage_opamp_dummy_magic_0.cap_res_Y.t114 sky130_fd_pr__cap_mim_m3_1 l=2 w=2
X145 two_stage_opamp_dummy_magic_0.V_source.t25 VIN+.t0 two_stage_opamp_dummy_magic_0.VD2.t11 GNDA.t139 sky130_fd_pr__nfet_01v8 ad=0.3 pd=1.9 as=0.3 ps=1.9 w=1.5 l=0.15
X146 VOUT+.t43 two_stage_opamp_dummy_magic_0.cap_res_X.t114 sky130_fd_pr__cap_mim_m3_1 l=2 w=2
X147 VOUT-.t44 two_stage_opamp_dummy_magic_0.cap_res_Y.t113 sky130_fd_pr__cap_mim_m3_1 l=2 w=2
X148 VOUT-.t45 two_stage_opamp_dummy_magic_0.cap_res_Y.t112 sky130_fd_pr__cap_mim_m3_1 l=2 w=2
X149 bgr_0.1st_Vout_1.t15 bgr_0.cap_res1.t17 sky130_fd_pr__cap_mim_m3_1 l=2 w=2
X150 bgr_0.V_mir1.t15 bgr_0.Vin-.t8 bgr_0.V_p_1.t4 GNDA.t173 sky130_fd_pr__nfet_01v8 ad=0.1 pd=0.9 as=0.1 ps=0.9 w=0.5 l=0.2
X151 bgr_0.V_mir1.t13 bgr_0.V_mir1.t12 VDDA.t61 VDDA.t60 sky130_fd_pr__pfet_01v8 ad=0.2 pd=1.4 as=0.2 ps=1.4 w=1 l=0.2
X152 GNDA.t74 a_7580_22380.t0 GNDA.t73 sky130_fd_pr__res_xhigh_po_0p35 l=6
X153 GNDA.t99 two_stage_opamp_dummy_magic_0.Y.t30 two_stage_opamp_dummy_magic_0.V_CMFB_S3.t11 VDDA.t149 sky130_fd_pr__pfet_01v8 ad=0.4 pd=2.4 as=0.4 ps=2.4 w=2 l=0.15
X154 two_stage_opamp_dummy_magic_0.V_source.t37 VIN+.t1 two_stage_opamp_dummy_magic_0.VD2.t18 GNDA.t322 sky130_fd_pr__nfet_01v8 ad=0.3 pd=1.9 as=0.3 ps=1.9 w=1.5 l=0.15
X155 VOUT+.t44 two_stage_opamp_dummy_magic_0.cap_res_X.t113 sky130_fd_pr__cap_mim_m3_1 l=2 w=2
X156 VOUT+.t45 two_stage_opamp_dummy_magic_0.cap_res_X.t112 sky130_fd_pr__cap_mim_m3_1 l=2 w=2
X157 VDDA.t151 two_stage_opamp_dummy_magic_0.Y.t31 VOUT-.t8 VDDA.t150 sky130_fd_pr__pfet_01v8 ad=1.2 pd=6.4 as=1.2 ps=6.4 w=6 l=0.15
X158 VOUT-.t46 two_stage_opamp_dummy_magic_0.cap_res_Y.t111 sky130_fd_pr__cap_mim_m3_1 l=2 w=2
X159 two_stage_opamp_dummy_magic_0.V_CMFB_S2.t7 two_stage_opamp_dummy_magic_0.X.t32 VDDA.t438 GNDA.t319 sky130_fd_pr__nfet_01v8 ad=0.6 pd=3.4 as=0.6 ps=3.4 w=3 l=0.15
X160 VOUT+.t46 two_stage_opamp_dummy_magic_0.cap_res_X.t111 sky130_fd_pr__cap_mim_m3_1 l=2 w=2
X161 VOUT+.t47 two_stage_opamp_dummy_magic_0.cap_res_X.t110 sky130_fd_pr__cap_mim_m3_1 l=2 w=2
X162 two_stage_opamp_dummy_magic_0.V_source.t23 two_stage_opamp_dummy_magic_0.Vb1.t1 two_stage_opamp_dummy_magic_0.Vb1.t2 GNDA.t72 sky130_fd_pr__nfet_01v8 ad=0.4 pd=2.8 as=0.4 ps=2.8 w=1 l=3.1
X163 two_stage_opamp_dummy_magic_0.V_source.t16 two_stage_opamp_dummy_magic_0.V_tail_gate.t17 GNDA.t105 GNDA.t104 sky130_fd_pr__nfet_01v8 ad=0.5 pd=2.9 as=0.5 ps=2.9 w=2.5 l=0.15
X164 VDDA.t32 bgr_0.PFET_GATE_10uA.t14 two_stage_opamp_dummy_magic_0.Vb1.t0 VDDA.t31 sky130_fd_pr__pfet_01v8 ad=0.2 pd=1.4 as=0.2 ps=1.4 w=1 l=0.15
X165 two_stage_opamp_dummy_magic_0.VD3.t28 two_stage_opamp_dummy_magic_0.Vb3.t10 VDDA.t309 VDDA.t308 sky130_fd_pr__pfet_01v8 ad=0.7 pd=3.9 as=0.7 ps=3.9 w=3.5 l=0.2
X166 VOUT+.t48 two_stage_opamp_dummy_magic_0.cap_res_X.t109 sky130_fd_pr__cap_mim_m3_1 l=2 w=2
X167 two_stage_opamp_dummy_magic_0.VD4.t19 two_stage_opamp_dummy_magic_0.Vb2.t14 two_stage_opamp_dummy_magic_0.Y.t2 two_stage_opamp_dummy_magic_0.VD4.t18 sky130_fd_pr__pfet_01v8 ad=0.7 pd=3.9 as=0.7 ps=3.9 w=3.5 l=0.2
X168 bgr_0.V_TOP.t23 VDDA.t46 sky130_fd_pr__cap_mim_m3_1 l=2 w=2
X169 VDDA.t417 VDDA.t415 two_stage_opamp_dummy_magic_0.V_CMFB_S1.t16 VDDA.t416 sky130_fd_pr__pfet_01v8 ad=0.4 pd=2.8 as=0.2 ps=1.4 w=1 l=0.15
X170 VOUT+.t49 two_stage_opamp_dummy_magic_0.cap_res_X.t108 sky130_fd_pr__cap_mim_m3_1 l=2 w=2
X171 VOUT+.t50 two_stage_opamp_dummy_magic_0.cap_res_X.t107 sky130_fd_pr__cap_mim_m3_1 l=2 w=2
X172 two_stage_opamp_dummy_magic_0.V_CMFB_S1.t3 bgr_0.PFET_GATE_10uA.t15 VDDA.t2 VDDA.t1 sky130_fd_pr__pfet_01v8 ad=0.2 pd=1.4 as=0.2 ps=1.4 w=1 l=0.15
X173 GNDA.t287 GNDA.t285 two_stage_opamp_dummy_magic_0.Y.t18 GNDA.t286 sky130_fd_pr__nfet_01v8 ad=0.6 pd=3.8 as=0.3 ps=1.9 w=1.5 l=0.15
X174 VOUT-.t47 two_stage_opamp_dummy_magic_0.cap_res_Y.t110 sky130_fd_pr__cap_mim_m3_1 l=2 w=2
X175 VOUT-.t48 two_stage_opamp_dummy_magic_0.cap_res_Y.t109 sky130_fd_pr__cap_mim_m3_1 l=2 w=2
X176 bgr_0.V_mir1.t1 bgr_0.Vin-.t9 bgr_0.V_p_1.t3 GNDA.t77 sky130_fd_pr__nfet_01v8 ad=0.1 pd=0.9 as=0.1 ps=0.9 w=0.5 l=0.2
X177 VOUT-.t49 two_stage_opamp_dummy_magic_0.cap_res_Y.t108 sky130_fd_pr__cap_mim_m3_1 l=2 w=2
X178 GNDA.t109 two_stage_opamp_dummy_magic_0.V_tail_gate.t18 two_stage_opamp_dummy_magic_0.V_source.t15 GNDA.t108 sky130_fd_pr__nfet_01v8 ad=0.5 pd=2.9 as=0.5 ps=2.9 w=2.5 l=0.15
X179 VOUT-.t50 two_stage_opamp_dummy_magic_0.cap_res_Y.t107 sky130_fd_pr__cap_mim_m3_1 l=2 w=2
X180 bgr_0.START_UP.t4 bgr_0.V_TOP.t24 VDDA.t142 VDDA.t141 sky130_fd_pr__pfet_01v8 ad=0.6 pd=3.4 as=0.6 ps=3.4 w=3 l=0.5
X181 bgr_0.PFET_GATE_10uA.t4 bgr_0.1st_Vout_2.t16 VDDA.t226 VDDA.t225 sky130_fd_pr__pfet_01v8 ad=0.2 pd=1.4 as=0.2 ps=1.4 w=1 l=0.2
X182 VDDA.t267 bgr_0.V_mir1.t18 bgr_0.1st_Vout_1.t4 VDDA.t266 sky130_fd_pr__pfet_01v8 ad=0.2 pd=1.4 as=0.2 ps=1.4 w=1 l=0.2
X183 VOUT-.t51 two_stage_opamp_dummy_magic_0.cap_res_Y.t106 sky130_fd_pr__cap_mim_m3_1 l=2 w=2
X184 VOUT+.t51 two_stage_opamp_dummy_magic_0.cap_res_X.t106 sky130_fd_pr__cap_mim_m3_1 l=2 w=2
X185 VOUT-.t4 two_stage_opamp_dummy_magic_0.Y.t32 VDDA.t55 VDDA.t54 sky130_fd_pr__pfet_01v8 ad=1.2 pd=6.4 as=1.2 ps=6.4 w=6 l=0.15
X186 VOUT+.t52 two_stage_opamp_dummy_magic_0.cap_res_X.t105 sky130_fd_pr__cap_mim_m3_1 l=2 w=2
X187 GNDA.t323 two_stage_opamp_dummy_magic_0.V_tail_gate.t19 two_stage_opamp_dummy_magic_0.V_source.t14 GNDA.t283 sky130_fd_pr__nfet_01v8 ad=0.5 pd=2.9 as=0.5 ps=2.9 w=2.5 l=0.15
X188 two_stage_opamp_dummy_magic_0.Vb2.t7 bgr_0.NFET_GATE_10uA.t9 GNDA.t206 GNDA.t205 sky130_fd_pr__nfet_01v8 ad=0.2 pd=1.4 as=0.2 ps=1.4 w=1 l=0.15
X189 GNDA.t204 bgr_0.NFET_GATE_10uA.t10 two_stage_opamp_dummy_magic_0.Vb2.t6 GNDA.t203 sky130_fd_pr__nfet_01v8 ad=0.2 pd=1.4 as=0.2 ps=1.4 w=1 l=0.15
X190 VOUT-.t52 two_stage_opamp_dummy_magic_0.cap_res_Y.t105 sky130_fd_pr__cap_mim_m3_1 l=2 w=2
X191 bgr_0.V_TOP.t25 VDDA.t143 sky130_fd_pr__cap_mim_m3_1 l=2 w=2
X192 GNDA.t202 bgr_0.NFET_GATE_10uA.t11 two_stage_opamp_dummy_magic_0.Vb2.t5 GNDA.t201 sky130_fd_pr__nfet_01v8 ad=0.2 pd=1.4 as=0.2 ps=1.4 w=1 l=0.15
X193 VDDA.t414 VDDA.t412 two_stage_opamp_dummy_magic_0.V_err_p.t21 VDDA.t413 sky130_fd_pr__pfet_01v8 ad=0.2 pd=1.8 as=0.1 ps=0.9 w=0.5 l=0.15
X194 two_stage_opamp_dummy_magic_0.VD1.t8 two_stage_opamp_dummy_magic_0.Vb1.t10 two_stage_opamp_dummy_magic_0.X.t3 GNDA.t93 sky130_fd_pr__nfet_01v8 ad=0.3 pd=1.9 as=0.3 ps=1.9 w=1.5 l=0.15
X195 VOUT-.t53 two_stage_opamp_dummy_magic_0.cap_res_Y.t104 sky130_fd_pr__cap_mim_m3_1 l=2 w=2
X196 VOUT+.t53 two_stage_opamp_dummy_magic_0.cap_res_X.t104 sky130_fd_pr__cap_mim_m3_1 l=2 w=2
X197 two_stage_opamp_dummy_magic_0.err_amp_out.t4 two_stage_opamp_dummy_magic_0.V_err_amp_ref.t8 two_stage_opamp_dummy_magic_0.V_err_p.t1 VDDA.t147 sky130_fd_pr__pfet_01v8 ad=0.1 pd=0.9 as=0.1 ps=0.9 w=0.5 l=0.15
X198 VOUT-.t54 two_stage_opamp_dummy_magic_0.cap_res_Y.t103 sky130_fd_pr__cap_mim_m3_1 l=2 w=2
X199 VOUT-.t55 two_stage_opamp_dummy_magic_0.cap_res_Y.t102 sky130_fd_pr__cap_mim_m3_1 l=2 w=2
X200 two_stage_opamp_dummy_magic_0.V_b_2nd_stage.t0 a_14240_2076.t1 GNDA.t17 sky130_fd_pr__res_xhigh_po_0p35 l=2.63
X201 VDDA.t307 two_stage_opamp_dummy_magic_0.Vb3.t11 two_stage_opamp_dummy_magic_0.VD3.t27 VDDA.t306 sky130_fd_pr__pfet_01v8 ad=0.7 pd=3.9 as=0.7 ps=3.9 w=3.5 l=0.2
X202 GNDA.t107 two_stage_opamp_dummy_magic_0.X.t33 two_stage_opamp_dummy_magic_0.V_CMFB_S1.t12 VDDA.t156 sky130_fd_pr__pfet_01v8 ad=0.4 pd=2.4 as=0.4 ps=2.4 w=2 l=0.15
X203 VOUT-.t56 two_stage_opamp_dummy_magic_0.cap_res_Y.t101 sky130_fd_pr__cap_mim_m3_1 l=2 w=2
X204 two_stage_opamp_dummy_magic_0.V_source.t13 two_stage_opamp_dummy_magic_0.V_tail_gate.t20 GNDA.t24 GNDA.t23 sky130_fd_pr__nfet_01v8 ad=0.5 pd=2.9 as=0.5 ps=2.9 w=2.5 l=0.15
X205 VDDA.t145 bgr_0.V_TOP.t26 bgr_0.Vin+.t4 VDDA.t144 sky130_fd_pr__pfet_01v8 ad=0.6 pd=3.4 as=0.6 ps=3.4 w=3 l=0.5
X206 bgr_0.1st_Vout_2.t5 bgr_0.V_mir2.t19 VDDA.t155 VDDA.t154 sky130_fd_pr__pfet_01v8 ad=0.2 pd=1.4 as=0.2 ps=1.4 w=1 l=0.2
X207 bgr_0.V_TOP.t1 bgr_0.1st_Vout_1.t16 VDDA.t158 VDDA.t157 sky130_fd_pr__pfet_01v8 ad=0.2 pd=1.4 as=0.2 ps=1.4 w=1 l=0.2
X208 bgr_0.V_CUR_REF_REG.t2 VDDA.t409 VDDA.t411 VDDA.t410 sky130_fd_pr__pfet_01v8 ad=0.2 pd=1.4 as=0.4 ps=2.8 w=1 l=0.15
X209 two_stage_opamp_dummy_magic_0.VD4.t5 two_stage_opamp_dummy_magic_0.VD4.t3 two_stage_opamp_dummy_magic_0.Y.t17 two_stage_opamp_dummy_magic_0.VD4.t4 sky130_fd_pr__pfet_01v8 ad=1.4 pd=7.8 as=0.7 ps=3.9 w=3.5 l=0.2
X210 VDDA.t305 two_stage_opamp_dummy_magic_0.Vb3.t12 two_stage_opamp_dummy_magic_0.VD4.t34 VDDA.t304 sky130_fd_pr__pfet_01v8 ad=0.7 pd=3.9 as=0.7 ps=3.9 w=3.5 l=0.2
X211 VOUT+.t54 two_stage_opamp_dummy_magic_0.cap_res_X.t103 sky130_fd_pr__cap_mim_m3_1 l=2 w=2
X212 VOUT+.t55 two_stage_opamp_dummy_magic_0.cap_res_X.t102 sky130_fd_pr__cap_mim_m3_1 l=2 w=2
X213 VOUT+.t56 two_stage_opamp_dummy_magic_0.cap_res_X.t101 sky130_fd_pr__cap_mim_m3_1 l=2 w=2
X214 VOUT-.t57 two_stage_opamp_dummy_magic_0.cap_res_Y.t100 sky130_fd_pr__cap_mim_m3_1 l=2 w=2
X215 two_stage_opamp_dummy_magic_0.V_tail_gate.t5 bgr_0.PFET_GATE_10uA.t16 VDDA.t222 VDDA.t221 sky130_fd_pr__pfet_01v8 ad=0.2 pd=1.4 as=0.2 ps=1.4 w=1 l=0.15
X216 VOUT+.t57 two_stage_opamp_dummy_magic_0.cap_res_X.t100 sky130_fd_pr__cap_mim_m3_1 l=2 w=2
X217 two_stage_opamp_dummy_magic_0.V_source.t2 VIN+.t2 two_stage_opamp_dummy_magic_0.VD2.t2 GNDA.t10 sky130_fd_pr__nfet_01v8 ad=0.3 pd=1.9 as=0.3 ps=1.9 w=1.5 l=0.15
X218 VOUT-.t58 two_stage_opamp_dummy_magic_0.cap_res_Y.t99 sky130_fd_pr__cap_mim_m3_1 l=2 w=2
X219 GNDA.t39 two_stage_opamp_dummy_magic_0.Y.t33 two_stage_opamp_dummy_magic_0.V_CMFB_S3.t10 VDDA.t56 sky130_fd_pr__pfet_01v8 ad=0.4 pd=2.4 as=0.4 ps=2.4 w=2 l=0.15
X220 two_stage_opamp_dummy_magic_0.V_source.t24 VIN-.t2 two_stage_opamp_dummy_magic_0.VD1.t11 GNDA.t138 sky130_fd_pr__nfet_01v8 ad=0.3 pd=1.9 as=0.3 ps=1.9 w=1.5 l=0.15
X221 two_stage_opamp_dummy_magic_0.V_tail_gate.t11 GNDA.t282 GNDA.t284 GNDA.t283 sky130_fd_pr__nfet_01v8 ad=0.3 pd=1.9 as=0.6 ps=3.8 w=1.5 l=0.15
X222 VOUT-.t59 two_stage_opamp_dummy_magic_0.cap_res_Y.t98 sky130_fd_pr__cap_mim_m3_1 l=2 w=2
X223 VOUT-.t60 two_stage_opamp_dummy_magic_0.cap_res_Y.t97 sky130_fd_pr__cap_mim_m3_1 l=2 w=2
X224 bgr_0.1st_Vout_2.t17 bgr_0.cap_res2.t15 sky130_fd_pr__cap_mim_m3_1 l=2 w=2
X225 two_stage_opamp_dummy_magic_0.V_err_mir_p.t2 two_stage_opamp_dummy_magic_0.V_err_amp_ref.t9 two_stage_opamp_dummy_magic_0.V_err_gate.t3 VDDA.t148 sky130_fd_pr__pfet_01v8 ad=0.1 pd=0.9 as=0.1 ps=0.9 w=0.5 l=0.15
X226 two_stage_opamp_dummy_magic_0.V_source.t12 two_stage_opamp_dummy_magic_0.V_tail_gate.t21 GNDA.t136 GNDA.t135 sky130_fd_pr__nfet_01v8 ad=0.5 pd=2.9 as=0.5 ps=2.9 w=2.5 l=0.15
X227 bgr_0.Vin+.t1 bgr_0.sky130_fd_pr__rf_pnp_05v5_W3p40L3p40_25.Emitter.t0 GNDA.t120 sky130_fd_pr__res_xhigh_po_0p35 l=2.3
X228 VOUT-.t61 two_stage_opamp_dummy_magic_0.cap_res_Y.t96 sky130_fd_pr__cap_mim_m3_1 l=2 w=2
X229 VOUT-.t62 two_stage_opamp_dummy_magic_0.cap_res_Y.t95 sky130_fd_pr__cap_mim_m3_1 l=2 w=2
X230 VOUT+.t58 two_stage_opamp_dummy_magic_0.cap_res_X.t99 sky130_fd_pr__cap_mim_m3_1 l=2 w=2
X231 VOUT+.t59 two_stage_opamp_dummy_magic_0.cap_res_X.t98 sky130_fd_pr__cap_mim_m3_1 l=2 w=2
X232 bgr_0.1st_Vout_2.t18 bgr_0.cap_res2.t14 sky130_fd_pr__cap_mim_m3_1 l=2 w=2
X233 bgr_0.Vin+.t3 bgr_0.V_TOP.t27 VDDA.t164 VDDA.t163 sky130_fd_pr__pfet_01v8 ad=0.6 pd=3.4 as=0.6 ps=3.4 w=3 l=0.5
X234 VDDA.t303 two_stage_opamp_dummy_magic_0.Vb3.t13 two_stage_opamp_dummy_magic_0.VD3.t26 VDDA.t302 sky130_fd_pr__pfet_01v8 ad=0.7 pd=3.9 as=0.7 ps=3.9 w=3.5 l=0.2
X235 VDDA.t408 VDDA.t406 bgr_0.PFET_GATE_10uA.t9 VDDA.t407 sky130_fd_pr__pfet_01v8 ad=0.4 pd=2.8 as=0.2 ps=1.4 w=1 l=0.2