* PEX produced on Tue Aug  5 03:54:26 PM CEST 2025 using /foss/tools/osic-multitool/iic-pex.sh with m=3 and s=1
* NGSPICE file created from bgr_opamp_dummy_magic.ext - technology: sky130A

.subckt bgr_opamp_dummy_magic VDDA GNDA VOUT+ VOUT- VIN+ VIN-
X0 VOUT-.t19 two_stage_opamp_dummy_magic_0.cap_res_X.t138 sky130_fd_pr__cap_mim_m3_1 l=2 w=2
X1 VDDA.t261 two_stage_opamp_dummy_magic_0.Vb3.t8 two_stage_opamp_dummy_magic_0.VD4.t26 VDDA.t260 sky130_fd_pr__pfet_01v8 ad=0.7 pd=3.9 as=0.7 ps=3.9 w=3.5 l=0.2
X2 VDDA.t259 two_stage_opamp_dummy_magic_0.Vb3.t9 two_stage_opamp_dummy_magic_0.VD3.t29 VDDA.t258 sky130_fd_pr__pfet_01v8 ad=0.7 pd=3.9 as=0.7 ps=3.9 w=3.5 l=0.2
X3 VOUT+.t19 two_stage_opamp_dummy_magic_0.cap_res_Y.t138 sky130_fd_pr__cap_mim_m3_1 l=2 w=2
X4 two_stage_opamp_dummy_magic_0.Vb2.t5 bgr_0.NFET_GATE_10uA.t5 GNDA.t56 GNDA.t55 sky130_fd_pr__nfet_01v8 ad=0.2 pd=1.4 as=0.2 ps=1.4 w=1 l=0.15
X5 GNDA.t310 VDDA.t429 bgr_0.V_TOP.t9 GNDA.t309 sky130_fd_pr__nfet_01v8 ad=1.01 pd=6.15 as=1 ps=5.8 w=2.5 l=5
X6 two_stage_opamp_dummy_magic_0.VD3.t7 two_stage_opamp_dummy_magic_0.Vb2.t11 two_stage_opamp_dummy_magic_0.X.t10 two_stage_opamp_dummy_magic_0.VD3.t6 sky130_fd_pr__pfet_01v8 ad=0.7 pd=3.9 as=0.7 ps=3.9 w=3.5 l=0.2
X7 VOUT-.t20 two_stage_opamp_dummy_magic_0.cap_res_X.t137 sky130_fd_pr__cap_mim_m3_1 l=2 w=2
X8 two_stage_opamp_dummy_magic_0.VD2.t9 VIN+.t0 two_stage_opamp_dummy_magic_0.V_source.t7 GNDA.t120 sky130_fd_pr__nfet_01v8 ad=0.3 pd=1.9 as=0.3 ps=1.9 w=1.5 l=0.15
X9 VOUT-.t21 two_stage_opamp_dummy_magic_0.cap_res_X.t136 sky130_fd_pr__cap_mim_m3_1 l=2 w=2
X10 two_stage_opamp_dummy_magic_0.V_source.t22 two_stage_opamp_dummy_magic_0.Vb1.t12 two_stage_opamp_dummy_magic_0.Vb1_2.t0 GNDA.t127 sky130_fd_pr__nfet_01v8 ad=0.6 pd=3.8 as=0.6 ps=3.8 w=1.5 l=3
X11 VOUT+.t1 two_stage_opamp_dummy_magic_0.Y.t25 VDDA.t23 VDDA.t22 sky130_fd_pr__pfet_01v8 ad=1.2 pd=6.4 as=1.2 ps=6.4 w=6 l=0.15
X12 GNDA.t308 VDDA.t376 VDDA.t378 VDDA.t377 sky130_fd_pr__pfet_01v8 ad=0.4 pd=2.4 as=0.8 ps=4.8 w=2 l=0.15
X13 GNDA.t93 two_stage_opamp_dummy_magic_0.Y.t26 two_stage_opamp_dummy_magic_0.V_CMFB_S3.t10 VDDA.t75 sky130_fd_pr__pfet_01v8 ad=0.4 pd=2.4 as=0.4 ps=2.4 w=2 l=0.15
X14 VOUT-.t22 two_stage_opamp_dummy_magic_0.cap_res_X.t135 sky130_fd_pr__cap_mim_m3_1 l=2 w=2
X15 bgr_0.V_p_1.t2 VDDA.t430 GNDA.t307 GNDA.t306 sky130_fd_pr__nfet_01v8 ad=1 pd=5.8 as=1.01 ps=6.15 w=2.5 l=5
X16 VDDA.t129 bgr_0.NFET_GATE_10uA.t6 GNDA.t54 GNDA.t53 sky130_fd_pr__nfet_01v8 ad=0.2 pd=1.4 as=0.2 ps=1.4 w=1 l=0.15
X17 bgr_0.1st_Vout_1.t7 bgr_0.cap_res1.t19 sky130_fd_pr__cap_mim_m3_1 l=2 w=2
X18 VDDA.t25 bgr_0.V_TOP.t14 bgr_0.Vin-.t4 VDDA.t24 sky130_fd_pr__pfet_01v8 ad=0.6 pd=3.4 as=0.6 ps=3.4 w=3 l=0.5
X19 VDDA.t156 two_stage_opamp_dummy_magic_0.Y.t27 two_stage_opamp_dummy_magic_0.V_CMFB_S4.t10 GNDA.t137 sky130_fd_pr__nfet_01v8 ad=0.6 pd=3.4 as=0.6 ps=3.4 w=3 l=0.15
X20 VOUT+.t20 two_stage_opamp_dummy_magic_0.cap_res_Y.t137 sky130_fd_pr__cap_mim_m3_1 l=2 w=2
X21 VOUT-.t23 two_stage_opamp_dummy_magic_0.cap_res_X.t134 sky130_fd_pr__cap_mim_m3_1 l=2 w=2
X22 GNDA.t159 GNDA.t248 bgr_0.sky130_fd_pr__rf_pnp_05v5_W3p40L3p40_25.Emitter.t7 sky130_fd_pr__pnp_05v5_W3p40L3p40
**devattr s=462400,2720
X23 bgr_0.V_TOP.t15 VDDA.t26 sky130_fd_pr__cap_mim_m3_1 l=2 w=2
X24 VOUT-.t24 two_stage_opamp_dummy_magic_0.cap_res_X.t133 sky130_fd_pr__cap_mim_m3_1 l=2 w=2
X25 two_stage_opamp_dummy_magic_0.Vb1.t0 bgr_0.PFET_GATE_10uA.t10 VDDA.t38 VDDA.t37 sky130_fd_pr__pfet_01v8 ad=0.4 pd=2.4 as=0.4 ps=2.4 w=2 l=0.15
X26 VDDA.t152 bgr_0.1st_Vout_2.t7 bgr_0.PFET_GATE_10uA.t4 VDDA.t151 sky130_fd_pr__pfet_01v8 ad=0.2 pd=1.4 as=0.2 ps=1.4 w=1 l=0.2
X27 VDDA.t257 two_stage_opamp_dummy_magic_0.Vb3.t10 two_stage_opamp_dummy_magic_0.VD4.t30 VDDA.t256 sky130_fd_pr__pfet_01v8 ad=0.7 pd=3.9 as=0.7 ps=3.9 w=3.5 l=0.2
X28 two_stage_opamp_dummy_magic_0.V_err_gate.t3 VDDA.t373 VDDA.t375 VDDA.t374 sky130_fd_pr__pfet_01v8 ad=0.5 pd=2.9 as=1 ps=5.8 w=2.5 l=0.15
X29 two_stage_opamp_dummy_magic_0.V_err_p.t1 two_stage_opamp_dummy_magic_0.V_tot.t4 two_stage_opamp_dummy_magic_0.err_amp_mir.t0 VDDA.t36 sky130_fd_pr__pfet_01v8 ad=0.5 pd=2.9 as=0.5 ps=2.9 w=2.5 l=0.15
X30 two_stage_opamp_dummy_magic_0.VD1.t14 two_stage_opamp_dummy_magic_0.Vb1.t13 two_stage_opamp_dummy_magic_0.X.t21 GNDA.t298 sky130_fd_pr__nfet_01v8 ad=0.3 pd=1.9 as=0.3 ps=1.9 w=1.5 l=0.15
X31 GNDA.t159 GNDA.t247 bgr_0.sky130_fd_pr__rf_pnp_05v5_W3p40L3p40_25.Emitter.t6 sky130_fd_pr__pnp_05v5_W3p40L3p40
**devattr s=462400,2720
X32 VOUT-.t25 two_stage_opamp_dummy_magic_0.cap_res_X.t132 sky130_fd_pr__cap_mim_m3_1 l=2 w=2
X33 bgr_0.V_TOP.t16 VDDA.t4 sky130_fd_pr__cap_mim_m3_1 l=2 w=2
X34 two_stage_opamp_dummy_magic_0.VD3.t31 VDDA.t370 VDDA.t372 VDDA.t371 sky130_fd_pr__pfet_01v8 ad=0.7 pd=3.9 as=1.4 ps=7.8 w=3.5 l=0.2
X35 two_stage_opamp_dummy_magic_0.VD2.t11 two_stage_opamp_dummy_magic_0.Vb1.t14 two_stage_opamp_dummy_magic_0.Y.t19 GNDA.t89 sky130_fd_pr__nfet_01v8 ad=0.3 pd=1.9 as=0.3 ps=1.9 w=1.5 l=0.15
X36 VOUT-.t14 two_stage_opamp_dummy_magic_0.X.t25 VDDA.t186 VDDA.t185 sky130_fd_pr__pfet_01v8 ad=1.2 pd=6.4 as=1.2 ps=6.4 w=6 l=0.15
X37 two_stage_opamp_dummy_magic_0.VD1.t13 two_stage_opamp_dummy_magic_0.Vb1.t15 two_stage_opamp_dummy_magic_0.X.t20 GNDA.t271 sky130_fd_pr__nfet_01v8 ad=0.3 pd=1.9 as=0.3 ps=1.9 w=1.5 l=0.15
X38 VOUT+.t21 two_stage_opamp_dummy_magic_0.cap_res_Y.t136 sky130_fd_pr__cap_mim_m3_1 l=2 w=2
X39 GNDA.t252 GNDA.t249 GNDA.t251 GNDA.t250 sky130_fd_pr__nfet_01v8 ad=0.4 pd=2.8 as=0 ps=0 w=1 l=0.15
X40 VOUT-.t5 two_stage_opamp_dummy_magic_0.X.t26 VDDA.t87 VDDA.t86 sky130_fd_pr__pfet_01v8 ad=1.2 pd=6.4 as=1.2 ps=6.4 w=6 l=0.15
X41 GNDA.t145 two_stage_opamp_dummy_magic_0.X.t27 two_stage_opamp_dummy_magic_0.V_CMFB_S1.t9 VDDA.t172 sky130_fd_pr__pfet_01v8 ad=0.4 pd=2.4 as=0.4 ps=2.4 w=2 l=0.15
X42 VDDA.t255 two_stage_opamp_dummy_magic_0.Vb3.t11 two_stage_opamp_dummy_magic_0.VD4.t29 VDDA.t254 sky130_fd_pr__pfet_01v8 ad=0.7 pd=3.9 as=0.7 ps=3.9 w=3.5 l=0.2
X43 GNDA.t262 GNDA.t260 VDDA.t386 GNDA.t261 sky130_fd_pr__nfet_01v8 ad=1.2 pd=6.8 as=0.6 ps=3.4 w=3 l=0.15
X44 bgr_0.V_TOP.t17 VDDA.t5 sky130_fd_pr__cap_mim_m3_1 l=2 w=2
X45 VDDA.t90 bgr_0.V_mir2.t13 bgr_0.1st_Vout_2.t1 VDDA.t89 sky130_fd_pr__pfet_01v8 ad=0.2 pd=1.4 as=0.2 ps=1.4 w=1 l=0.2
X46 VOUT+.t22 two_stage_opamp_dummy_magic_0.cap_res_Y.t135 sky130_fd_pr__cap_mim_m3_1 l=2 w=2
X47 VOUT-.t26 two_stage_opamp_dummy_magic_0.cap_res_X.t131 sky130_fd_pr__cap_mim_m3_1 l=2 w=2
X48 VOUT-.t27 two_stage_opamp_dummy_magic_0.cap_res_X.t130 sky130_fd_pr__cap_mim_m3_1 l=2 w=2
X49 VOUT-.t28 two_stage_opamp_dummy_magic_0.cap_res_X.t129 sky130_fd_pr__cap_mim_m3_1 l=2 w=2
X50 VOUT-.t29 two_stage_opamp_dummy_magic_0.cap_res_X.t128 sky130_fd_pr__cap_mim_m3_1 l=2 w=2
X51 VDDA.t76 two_stage_opamp_dummy_magic_0.X.t28 two_stage_opamp_dummy_magic_0.V_CMFB_S2.t9 GNDA.t94 sky130_fd_pr__nfet_01v8 ad=0.6 pd=3.4 as=0.6 ps=3.4 w=3 l=0.15
X52 VOUT-.t30 two_stage_opamp_dummy_magic_0.cap_res_X.t127 sky130_fd_pr__cap_mim_m3_1 l=2 w=2
X53 VOUT+.t23 two_stage_opamp_dummy_magic_0.cap_res_Y.t134 sky130_fd_pr__cap_mim_m3_1 l=2 w=2
X54 GNDA.t159 GNDA.t259 bgr_0.sky130_fd_pr__rf_pnp_05v5_W3p40L3p40_25.Emitter.t5 sky130_fd_pr__pnp_05v5_W3p40L3p40
**devattr s=462400,2720
X55 VDDA.t369 VDDA.t367 two_stage_opamp_dummy_magic_0.V_err_gate.t2 VDDA.t368 sky130_fd_pr__pfet_01v8 ad=1 pd=5.8 as=0.5 ps=2.9 w=2.5 l=0.15
X56 VOUT+.t24 two_stage_opamp_dummy_magic_0.cap_res_Y.t133 sky130_fd_pr__cap_mim_m3_1 l=2 w=2
X57 two_stage_opamp_dummy_magic_0.err_amp_mir.t1 GNDA.t256 GNDA.t258 GNDA.t257 sky130_fd_pr__nfet_01v8 ad=0.5 pd=2.9 as=1 ps=5.8 w=2.5 l=0.15
X58 two_stage_opamp_dummy_magic_0.VD1.t2 VIN-.t0 two_stage_opamp_dummy_magic_0.V_source.t18 GNDA.t83 sky130_fd_pr__nfet_01v8 ad=0.3 pd=1.9 as=0.3 ps=1.9 w=1.5 l=0.15
X59 VOUT+.t25 two_stage_opamp_dummy_magic_0.cap_res_Y.t132 sky130_fd_pr__cap_mim_m3_1 l=2 w=2
X60 bgr_0.Vin-.t3 bgr_0.V_TOP.t18 VDDA.t53 VDDA.t52 sky130_fd_pr__pfet_01v8 ad=0.6 pd=3.4 as=0.6 ps=3.4 w=3 l=0.5
X61 bgr_0.V_CMFB_S3.t3 bgr_0.PFET_GATE_10uA.t11 VDDA.t205 VDDA.t204 sky130_fd_pr__pfet_01v8 ad=0.2 pd=1.4 as=0.2 ps=1.4 w=1 l=0.15
X62 bgr_0.V_TOP.t19 VDDA.t54 sky130_fd_pr__cap_mim_m3_1 l=2 w=2
X63 VDDA.t80 bgr_0.PFET_GATE_10uA.t12 bgr_0.V_CMFB_S3.t2 VDDA.t79 sky130_fd_pr__pfet_01v8 ad=0.2 pd=1.4 as=0.2 ps=1.4 w=1 l=0.15
X64 VOUT+.t26 two_stage_opamp_dummy_magic_0.cap_res_Y.t131 sky130_fd_pr__cap_mim_m3_1 l=2 w=2
X65 two_stage_opamp_dummy_magic_0.VD3.t1 two_stage_opamp_dummy_magic_0.Vb2.t12 two_stage_opamp_dummy_magic_0.X.t9 two_stage_opamp_dummy_magic_0.VD3.t0 sky130_fd_pr__pfet_01v8 ad=0.7 pd=3.9 as=0.7 ps=3.9 w=3.5 l=0.2
X66 two_stage_opamp_dummy_magic_0.VD2.t17 GNDA.t253 GNDA.t255 GNDA.t254 sky130_fd_pr__nfet_01v8 ad=0.3 pd=1.9 as=0.6 ps=3.8 w=1.5 l=0.15
X67 two_stage_opamp_dummy_magic_0.Vb1.t8 two_stage_opamp_dummy_magic_0.Vb1.t7 two_stage_opamp_dummy_magic_0.Vb1_2.t4 GNDA.t90 sky130_fd_pr__nfet_01v8 ad=0.3 pd=1.9 as=0.3 ps=1.9 w=1.5 l=0.15
X68 VOUT+.t27 two_stage_opamp_dummy_magic_0.cap_res_Y.t130 sky130_fd_pr__cap_mim_m3_1 l=2 w=2
X69 GNDA.t60 two_stage_opamp_dummy_magic_0.V_tail_gate.t12 two_stage_opamp_dummy_magic_0.V_source.t13 GNDA.t59 sky130_fd_pr__nfet_01v8 ad=0.5 pd=2.9 as=0.5 ps=2.9 w=2.5 l=0.15
X70 two_stage_opamp_dummy_magic_0.X.t8 two_stage_opamp_dummy_magic_0.Vb2.t13 two_stage_opamp_dummy_magic_0.VD3.t11 two_stage_opamp_dummy_magic_0.VD3.t10 sky130_fd_pr__pfet_01v8 ad=0.7 pd=3.9 as=0.7 ps=3.9 w=3.5 l=0.2
X71 VOUT+.t14 VDDA.t364 VDDA.t366 VDDA.t365 sky130_fd_pr__pfet_01v8 ad=1.2 pd=6.4 as=2.4 ps=12.8 w=6 l=0.15
X72 GNDA.t246 GNDA.t244 two_stage_opamp_dummy_magic_0.V_tail_gate.t10 GNDA.t245 sky130_fd_pr__nfet_01v8 ad=0.6 pd=3.8 as=0.3 ps=1.9 w=1.5 l=0.15
X73 two_stage_opamp_dummy_magic_0.VD1.t19 VIN-.t1 two_stage_opamp_dummy_magic_0.V_source.t29 GNDA.t281 sky130_fd_pr__nfet_01v8 ad=0.3 pd=1.9 as=0.3 ps=1.9 w=1.5 l=0.15
X74 VOUT-.t31 two_stage_opamp_dummy_magic_0.cap_res_X.t126 sky130_fd_pr__cap_mim_m3_1 l=2 w=2
X75 VOUT+.t8 two_stage_opamp_dummy_magic_0.Y.t28 VDDA.t144 VDDA.t143 sky130_fd_pr__pfet_01v8 ad=1.2 pd=6.4 as=1.2 ps=6.4 w=6 l=0.15
X76 GNDA.t3 two_stage_opamp_dummy_magic_0.V_b_2nd_stage.t2 VOUT+.t0 GNDA.t2 sky130_fd_pr__nfet_01v8 ad=1.4 pd=7.4 as=1.4 ps=7.4 w=7 l=0.6
X77 two_stage_opamp_dummy_magic_0.VD4.t18 two_stage_opamp_dummy_magic_0.Vb2.t14 two_stage_opamp_dummy_magic_0.Y.t9 two_stage_opamp_dummy_magic_0.VD4.t17 sky130_fd_pr__pfet_01v8 ad=0.7 pd=3.9 as=0.7 ps=3.9 w=3.5 l=0.2
X78 GNDA.t273 two_stage_opamp_dummy_magic_0.Y.t29 two_stage_opamp_dummy_magic_0.V_CMFB_S3.t9 VDDA.t194 sky130_fd_pr__pfet_01v8 ad=0.4 pd=2.4 as=0.4 ps=2.4 w=2 l=0.15
X79 VOUT-.t32 two_stage_opamp_dummy_magic_0.cap_res_X.t125 sky130_fd_pr__cap_mim_m3_1 l=2 w=2
X80 bgr_0.V_TOP.t20 VDDA.t162 sky130_fd_pr__cap_mim_m3_1 l=2 w=2
X81 VDDA.t253 two_stage_opamp_dummy_magic_0.Vb3.t12 two_stage_opamp_dummy_magic_0.VD4.t23 VDDA.t252 sky130_fd_pr__pfet_01v8 ad=0.7 pd=3.9 as=0.7 ps=3.9 w=3.5 l=0.2
X82 VOUT-.t33 two_stage_opamp_dummy_magic_0.cap_res_X.t124 sky130_fd_pr__cap_mim_m3_1 l=2 w=2
X83 VOUT-.t34 two_stage_opamp_dummy_magic_0.cap_res_X.t123 sky130_fd_pr__cap_mim_m3_1 l=2 w=2
X84 bgr_0.1st_Vout_2.t8 bgr_0.cap_res2.t20 sky130_fd_pr__cap_mim_m3_1 l=2 w=2
X85 two_stage_opamp_dummy_magic_0.V_source.t24 two_stage_opamp_dummy_magic_0.V_tail_gate.t13 GNDA.t148 GNDA.t147 sky130_fd_pr__nfet_01v8 ad=0.5 pd=2.9 as=0.5 ps=2.9 w=2.5 l=0.15
X86 VOUT+.t28 two_stage_opamp_dummy_magic_0.cap_res_Y.t129 sky130_fd_pr__cap_mim_m3_1 l=2 w=2
X87 VOUT+.t29 two_stage_opamp_dummy_magic_0.cap_res_Y.t128 sky130_fd_pr__cap_mim_m3_1 l=2 w=2
X88 VOUT+.t30 two_stage_opamp_dummy_magic_0.cap_res_Y.t127 sky130_fd_pr__cap_mim_m3_1 l=2 w=2
X89 VOUT+.t31 two_stage_opamp_dummy_magic_0.cap_res_Y.t126 sky130_fd_pr__cap_mim_m3_1 l=2 w=2
X90 VDDA.t33 bgr_0.V_mir2.t10 bgr_0.V_mir2.t11 VDDA.t32 sky130_fd_pr__pfet_01v8 ad=0.2 pd=1.4 as=0.2 ps=1.4 w=1 l=0.2
X91 two_stage_opamp_dummy_magic_0.Vb2_2.t8 two_stage_opamp_dummy_magic_0.Vb2_2.t6 two_stage_opamp_dummy_magic_0.Vb2_2.t8 two_stage_opamp_dummy_magic_0.Vb2_2.t7 sky130_fd_pr__pfet_01v8 ad=0.7 pd=3.9 as=0 ps=0 w=3.5 l=0.2
X92 two_stage_opamp_dummy_magic_0.V_p_mir.t2 two_stage_opamp_dummy_magic_0.V_tail_gate.t14 GNDA.t62 GNDA.t61 sky130_fd_pr__nfet_01v8 ad=0.5 pd=2.9 as=0.5 ps=2.9 w=2.5 l=0.15
X93 two_stage_opamp_dummy_magic_0.VD3.t28 two_stage_opamp_dummy_magic_0.Vb3.t13 VDDA.t251 VDDA.t250 sky130_fd_pr__pfet_01v8 ad=0.7 pd=3.9 as=0.7 ps=3.9 w=3.5 l=0.2
X94 two_stage_opamp_dummy_magic_0.VD1.t12 two_stage_opamp_dummy_magic_0.Vb1.t16 two_stage_opamp_dummy_magic_0.X.t0 GNDA.t79 sky130_fd_pr__nfet_01v8 ad=0.3 pd=1.9 as=0.3 ps=1.9 w=1.5 l=0.15
X95 VOUT-.t35 two_stage_opamp_dummy_magic_0.cap_res_X.t122 sky130_fd_pr__cap_mim_m3_1 l=2 w=2
X96 bgr_0.1st_Vout_2.t9 bgr_0.cap_res2.t19 sky130_fd_pr__cap_mim_m3_1 l=2 w=2
X97 GNDA.t243 GNDA.t241 VOUT+.t4 GNDA.t242 sky130_fd_pr__nfet_01v8 ad=2.8 pd=14.8 as=1.4 ps=7.4 w=7 l=0.6
X98 two_stage_opamp_dummy_magic_0.V_tail_gate.t7 bgr_0.PFET_GATE_10uA.t13 VDDA.t198 VDDA.t197 sky130_fd_pr__pfet_01v8 ad=0.2 pd=1.4 as=0.2 ps=1.4 w=1 l=0.15
X99 VOUT+.t32 two_stage_opamp_dummy_magic_0.cap_res_Y.t125 sky130_fd_pr__cap_mim_m3_1 l=2 w=2
X100 VOUT-.t36 two_stage_opamp_dummy_magic_0.cap_res_X.t121 sky130_fd_pr__cap_mim_m3_1 l=2 w=2
X101 GNDA.t333 two_stage_opamp_dummy_magic_0.V_tail_gate.t15 two_stage_opamp_dummy_magic_0.V_source.t39 GNDA.t204 sky130_fd_pr__nfet_01v8 ad=0.5 pd=2.9 as=0.5 ps=2.9 w=2.5 l=0.15
X102 GNDA.t86 a_11300_28850.t0 GNDA.t85 sky130_fd_pr__res_xhigh_po_0p35 l=6
X103 bgr_0.PFET_GATE_10uA.t6 VDDA.t431 GNDA.t305 GNDA.t304 sky130_fd_pr__nfet_01v8 ad=1 pd=5.8 as=1 ps=5.8 w=2.5 l=5
X104 VOUT-.t37 two_stage_opamp_dummy_magic_0.cap_res_X.t120 sky130_fd_pr__cap_mim_m3_1 l=2 w=2
X105 VOUT-.t38 two_stage_opamp_dummy_magic_0.cap_res_X.t119 sky130_fd_pr__cap_mim_m3_1 l=2 w=2
X106 VOUT+.t33 two_stage_opamp_dummy_magic_0.cap_res_Y.t124 sky130_fd_pr__cap_mim_m3_1 l=2 w=2
X107 bgr_0.1st_Vout_1.t8 bgr_0.cap_res1.t18 sky130_fd_pr__cap_mim_m3_1 l=2 w=2
X108 VDDA.t363 VDDA.t361 GNDA.t303 VDDA.t362 sky130_fd_pr__pfet_01v8 ad=0.8 pd=4.8 as=0.4 ps=2.4 w=2 l=0.15
X109 two_stage_opamp_dummy_magic_0.VD2.t10 two_stage_opamp_dummy_magic_0.Vb1.t17 two_stage_opamp_dummy_magic_0.Y.t18 GNDA.t82 sky130_fd_pr__nfet_01v8 ad=0.3 pd=1.9 as=0.3 ps=1.9 w=1.5 l=0.15
X110 VOUT-.t39 two_stage_opamp_dummy_magic_0.cap_res_X.t118 sky130_fd_pr__cap_mim_m3_1 l=2 w=2
X111 VOUT-.t40 two_stage_opamp_dummy_magic_0.cap_res_X.t117 sky130_fd_pr__cap_mim_m3_1 l=2 w=2
X112 bgr_0.1st_Vout_2.t10 bgr_0.cap_res2.t18 sky130_fd_pr__cap_mim_m3_1 l=2 w=2
X113 VDDA.t64 bgr_0.V_mir1.t13 bgr_0.1st_Vout_1.t0 VDDA.t63 sky130_fd_pr__pfet_01v8 ad=0.2 pd=1.4 as=0.2 ps=1.4 w=1 l=0.2
X114 VOUT-.t8 two_stage_opamp_dummy_magic_0.X.t29 VDDA.t132 VDDA.t131 sky130_fd_pr__pfet_01v8 ad=1.2 pd=6.4 as=1.2 ps=6.4 w=6 l=0.15
X115 two_stage_opamp_dummy_magic_0.VD1.t11 two_stage_opamp_dummy_magic_0.Vb1.t18 two_stage_opamp_dummy_magic_0.X.t14 GNDA.t122 sky130_fd_pr__nfet_01v8 ad=0.3 pd=1.9 as=0.3 ps=1.9 w=1.5 l=0.15
X116 VOUT-.t41 two_stage_opamp_dummy_magic_0.cap_res_X.t116 sky130_fd_pr__cap_mim_m3_1 l=2 w=2
X117 bgr_0.V_TOP.t21 VDDA.t163 sky130_fd_pr__cap_mim_m3_1 l=2 w=2
X118 GNDA.t139 two_stage_opamp_dummy_magic_0.X.t30 two_stage_opamp_dummy_magic_0.V_CMFB_S1.t8 VDDA.t159 sky130_fd_pr__pfet_01v8 ad=0.4 pd=2.4 as=0.4 ps=2.4 w=2 l=0.15
X119 VOUT+.t34 two_stage_opamp_dummy_magic_0.cap_res_Y.t123 sky130_fd_pr__cap_mim_m3_1 l=2 w=2
X120 VOUT+.t35 two_stage_opamp_dummy_magic_0.cap_res_Y.t122 sky130_fd_pr__cap_mim_m3_1 l=2 w=2
X121 VDDA.t411 bgr_0.V_TOP.t22 two_stage_opamp_dummy_magic_0.V_err_amp_ref.t3 VDDA.t410 sky130_fd_pr__pfet_01v8 ad=0.6 pd=3.4 as=0.6 ps=3.4 w=3 l=0.5
X122 VDDA.t11 bgr_0.PFET_GATE_10uA.t14 bgr_0.V_CMFB_S1.t3 VDDA.t10 sky130_fd_pr__pfet_01v8 ad=0.2 pd=1.4 as=0.2 ps=1.4 w=1 l=0.15
X123 bgr_0.V_CMFB_S1.t5 VDDA.t358 VDDA.t360 VDDA.t359 sky130_fd_pr__pfet_01v8 ad=0.2 pd=1.4 as=0.4 ps=2.8 w=1 l=0.15
X124 VOUT+.t36 two_stage_opamp_dummy_magic_0.cap_res_Y.t121 sky130_fd_pr__cap_mim_m3_1 l=2 w=2
X125 VOUT+.t37 two_stage_opamp_dummy_magic_0.cap_res_Y.t120 sky130_fd_pr__cap_mim_m3_1 l=2 w=2
X126 two_stage_opamp_dummy_magic_0.Y.t24 two_stage_opamp_dummy_magic_0.VD4.t34 two_stage_opamp_dummy_magic_0.VD4.t36 two_stage_opamp_dummy_magic_0.VD4.t35 sky130_fd_pr__pfet_01v8 ad=0.7 pd=3.9 as=1.4 ps=7.8 w=3.5 l=0.2
X127 VDDA.t88 GNDA.t238 GNDA.t240 GNDA.t239 sky130_fd_pr__nfet_01v8 ad=0.6 pd=3.4 as=1.2 ps=6.8 w=3 l=0.15
X128 two_stage_opamp_dummy_magic_0.VD4.t25 two_stage_opamp_dummy_magic_0.Vb3.t14 VDDA.t249 VDDA.t248 sky130_fd_pr__pfet_01v8 ad=0.7 pd=3.9 as=0.7 ps=3.9 w=3.5 l=0.2
X129 two_stage_opamp_dummy_magic_0.V_err_mir_p.t2 two_stage_opamp_dummy_magic_0.V_err_gate.t6 VDDA.t417 VDDA.t416 sky130_fd_pr__pfet_01v8 ad=0.5 pd=2.9 as=0.5 ps=2.9 w=2.5 l=0.15
X130 VOUT+.t38 two_stage_opamp_dummy_magic_0.cap_res_Y.t119 sky130_fd_pr__cap_mim_m3_1 l=2 w=2
X131 two_stage_opamp_dummy_magic_0.X.t7 two_stage_opamp_dummy_magic_0.Vb2.t15 two_stage_opamp_dummy_magic_0.VD3.t19 two_stage_opamp_dummy_magic_0.VD3.t18 sky130_fd_pr__pfet_01v8 ad=0.7 pd=3.9 as=0.7 ps=3.9 w=3.5 l=0.2
X132 two_stage_opamp_dummy_magic_0.VD3.t27 two_stage_opamp_dummy_magic_0.Vb3.t15 VDDA.t247 VDDA.t246 sky130_fd_pr__pfet_01v8 ad=0.7 pd=3.9 as=0.7 ps=3.9 w=3.5 l=0.2
X133 two_stage_opamp_dummy_magic_0.VD1.t16 VIN-.t2 two_stage_opamp_dummy_magic_0.V_source.t27 GNDA.t154 sky130_fd_pr__nfet_01v8 ad=0.3 pd=1.9 as=0.3 ps=1.9 w=1.5 l=0.15
X134 VOUT-.t42 two_stage_opamp_dummy_magic_0.cap_res_X.t115 sky130_fd_pr__cap_mim_m3_1 l=2 w=2
X135 VOUT+.t39 two_stage_opamp_dummy_magic_0.cap_res_Y.t118 sky130_fd_pr__cap_mim_m3_1 l=2 w=2
X136 VOUT-.t43 two_stage_opamp_dummy_magic_0.cap_res_X.t114 sky130_fd_pr__cap_mim_m3_1 l=2 w=2
X137 VOUT+.t40 two_stage_opamp_dummy_magic_0.cap_res_Y.t117 sky130_fd_pr__cap_mim_m3_1 l=2 w=2
X138 VOUT+.t41 two_stage_opamp_dummy_magic_0.cap_res_Y.t116 sky130_fd_pr__cap_mim_m3_1 l=2 w=2
X139 VDDA.t357 VDDA.t355 bgr_0.V_TOP.t13 VDDA.t356 sky130_fd_pr__pfet_01v8 ad=0.4 pd=2.8 as=0.2 ps=1.4 w=1 l=0.2
X140 VOUT-.t44 two_stage_opamp_dummy_magic_0.cap_res_X.t113 sky130_fd_pr__cap_mim_m3_1 l=2 w=2
X141 VOUT-.t45 two_stage_opamp_dummy_magic_0.cap_res_X.t112 sky130_fd_pr__cap_mim_m3_1 l=2 w=2
X142 bgr_0.1st_Vout_2.t11 bgr_0.cap_res2.t17 sky130_fd_pr__cap_mim_m3_1 l=2 w=2
X143 two_stage_opamp_dummy_magic_0.Vb1.t2 two_stage_opamp_dummy_magic_0.Vb1.t1 two_stage_opamp_dummy_magic_0.Vb1_2.t3 GNDA.t297 sky130_fd_pr__nfet_01v8 ad=0.3 pd=1.9 as=0.3 ps=1.9 w=1.5 l=0.15
X144 a_5700_30308.t0 a_5820_29044.t0 GNDA.t18 sky130_fd_pr__res_xhigh_po_0p35 l=4.28
X145 two_stage_opamp_dummy_magic_0.VD1.t1 VIN-.t3 two_stage_opamp_dummy_magic_0.V_source.t16 GNDA.t73 sky130_fd_pr__nfet_01v8 ad=0.3 pd=1.9 as=0.3 ps=1.9 w=1.5 l=0.15
X146 bgr_0.V_TOP.t23 VDDA.t412 sky130_fd_pr__cap_mim_m3_1 l=2 w=2
X147 VOUT+.t10 two_stage_opamp_dummy_magic_0.Y.t30 VDDA.t171 VDDA.t170 sky130_fd_pr__pfet_01v8 ad=1.2 pd=6.4 as=1.2 ps=6.4 w=6 l=0.15
X148 VOUT+.t42 two_stage_opamp_dummy_magic_0.cap_res_Y.t115 sky130_fd_pr__cap_mim_m3_1 l=2 w=2
X149 VOUT+.t43 two_stage_opamp_dummy_magic_0.cap_res_Y.t114 sky130_fd_pr__cap_mim_m3_1 l=2 w=2
X150 VOUT-.t46 two_stage_opamp_dummy_magic_0.cap_res_X.t111 sky130_fd_pr__cap_mim_m3_1 l=2 w=2
X151 VOUT+.t44 two_stage_opamp_dummy_magic_0.cap_res_Y.t113 sky130_fd_pr__cap_mim_m3_1 l=2 w=2
X152 GNDA.t237 GNDA.t235 two_stage_opamp_dummy_magic_0.Vb3.t2 GNDA.t236 sky130_fd_pr__nfet_01v8 ad=0.4 pd=2.8 as=0.2 ps=1.4 w=1 l=0.15
X153 VDDA.t97 bgr_0.1st_Vout_1.t9 bgr_0.V_TOP.t1 VDDA.t96 sky130_fd_pr__pfet_01v8 ad=0.2 pd=1.4 as=0.2 ps=1.4 w=1 l=0.2
X154 a_13840_3288.t1 two_stage_opamp_dummy_magic_0.V_tot.t3 GNDA.t330 sky130_fd_pr__res_xhigh_po_0p35 l=1.75
X155 bgr_0.1st_Vout_2.t3 bgr_0.V_CUR_REF_REG.t3 bgr_0.V_p_2.t0 GNDA.t108 sky130_fd_pr__nfet_01v8 ad=1 pd=5.8 as=0.5 ps=2.9 w=2.5 l=0.2
X156 VOUT+.t45 two_stage_opamp_dummy_magic_0.cap_res_Y.t112 sky130_fd_pr__cap_mim_m3_1 l=2 w=2
X157 GNDA.t234 GNDA.t232 two_stage_opamp_dummy_magic_0.VD1.t18 GNDA.t233 sky130_fd_pr__nfet_01v8 ad=0.6 pd=3.8 as=0.3 ps=1.9 w=1.5 l=0.15
X158 GNDA.t231 GNDA.t229 two_stage_opamp_dummy_magic_0.V_source.t28 GNDA.t230 sky130_fd_pr__nfet_01v8 ad=1 pd=5.8 as=0.5 ps=2.9 w=2.5 l=0.15
X159 GNDA.t75 two_stage_opamp_dummy_magic_0.V_tail_gate.t16 two_stage_opamp_dummy_magic_0.V_source.t17 GNDA.t74 sky130_fd_pr__nfet_01v8 ad=0.5 pd=2.9 as=0.5 ps=2.9 w=2.5 l=0.15
X160 VOUT-.t47 two_stage_opamp_dummy_magic_0.cap_res_X.t110 sky130_fd_pr__cap_mim_m3_1 l=2 w=2
X161 VOUT-.t48 two_stage_opamp_dummy_magic_0.cap_res_X.t109 sky130_fd_pr__cap_mim_m3_1 l=2 w=2
X162 VOUT-.t49 two_stage_opamp_dummy_magic_0.cap_res_X.t108 sky130_fd_pr__cap_mim_m3_1 l=2 w=2
X163 VOUT+.t46 two_stage_opamp_dummy_magic_0.cap_res_Y.t111 sky130_fd_pr__cap_mim_m3_1 l=2 w=2
X164 VOUT+.t47 two_stage_opamp_dummy_magic_0.cap_res_Y.t110 sky130_fd_pr__cap_mim_m3_1 l=2 w=2
X165 VOUT+.t48 two_stage_opamp_dummy_magic_0.cap_res_Y.t109 sky130_fd_pr__cap_mim_m3_1 l=2 w=2
X166 VDDA.t245 two_stage_opamp_dummy_magic_0.Vb3.t16 two_stage_opamp_dummy_magic_0.VD3.t26 VDDA.t244 sky130_fd_pr__pfet_01v8 ad=0.7 pd=3.9 as=0.7 ps=3.9 w=3.5 l=0.2
X167 GNDA.t228 GNDA.t226 two_stage_opamp_dummy_magic_0.VD2.t16 GNDA.t227 sky130_fd_pr__nfet_01v8 ad=0.6 pd=3.8 as=0.3 ps=1.9 w=1.5 l=0.15
X168 VOUT+.t49 two_stage_opamp_dummy_magic_0.cap_res_Y.t108 sky130_fd_pr__cap_mim_m3_1 l=2 w=2
X169 bgr_0.V_TOP.t24 VDDA.t83 sky130_fd_pr__cap_mim_m3_1 l=2 w=2
X170 two_stage_opamp_dummy_magic_0.V_source.t31 two_stage_opamp_dummy_magic_0.V_tail_gate.t17 GNDA.t284 GNDA.t245 sky130_fd_pr__nfet_01v8 ad=0.5 pd=2.9 as=0.5 ps=2.9 w=2.5 l=0.15
X171 VOUT-.t50 two_stage_opamp_dummy_magic_0.cap_res_X.t107 sky130_fd_pr__cap_mim_m3_1 l=2 w=2
X172 VDDA.t354 VDDA.t352 VOUT+.t13 VDDA.t353 sky130_fd_pr__pfet_01v8 ad=2.4 pd=12.8 as=1.2 ps=6.4 w=6 l=0.15
X173 VOUT+.t50 two_stage_opamp_dummy_magic_0.cap_res_Y.t107 sky130_fd_pr__cap_mim_m3_1 l=2 w=2
X174 VOUT+.t5 GNDA.t223 GNDA.t225 GNDA.t224 sky130_fd_pr__nfet_01v8 ad=1.4 pd=7.4 as=2.8 ps=14.8 w=7 l=0.6
X175 two_stage_opamp_dummy_magic_0.Y.t8 two_stage_opamp_dummy_magic_0.Vb2.t16 two_stage_opamp_dummy_magic_0.VD4.t14 two_stage_opamp_dummy_magic_0.VD4.t13 sky130_fd_pr__pfet_01v8 ad=0.7 pd=3.9 as=0.7 ps=3.9 w=3.5 l=0.2
X176 VOUT+.t51 two_stage_opamp_dummy_magic_0.cap_res_Y.t106 sky130_fd_pr__cap_mim_m3_1 l=2 w=2
X177 VOUT+.t52 two_stage_opamp_dummy_magic_0.cap_res_Y.t105 sky130_fd_pr__cap_mim_m3_1 l=2 w=2
X178 VDDA.t102 bgr_0.V_mir1.t10 bgr_0.V_mir1.t11 VDDA.t101 sky130_fd_pr__pfet_01v8 ad=0.2 pd=1.4 as=0.2 ps=1.4 w=1 l=0.2
X179 two_stage_opamp_dummy_magic_0.VD4.t28 two_stage_opamp_dummy_magic_0.Vb3.t17 VDDA.t243 VDDA.t242 sky130_fd_pr__pfet_01v8 ad=0.7 pd=3.9 as=0.7 ps=3.9 w=3.5 l=0.2
X180 VOUT+.t53 two_stage_opamp_dummy_magic_0.cap_res_Y.t104 sky130_fd_pr__cap_mim_m3_1 l=2 w=2
X181 VOUT+.t54 two_stage_opamp_dummy_magic_0.cap_res_Y.t103 sky130_fd_pr__cap_mim_m3_1 l=2 w=2
X182 VOUT+.t55 two_stage_opamp_dummy_magic_0.cap_res_Y.t102 sky130_fd_pr__cap_mim_m3_1 l=2 w=2
X183 VOUT-.t12 two_stage_opamp_dummy_magic_0.X.t31 VDDA.t161 VDDA.t160 sky130_fd_pr__pfet_01v8 ad=1.2 pd=6.4 as=1.2 ps=6.4 w=6 l=0.15
X184 two_stage_opamp_dummy_magic_0.Vb2_Vb3.t8 two_stage_opamp_dummy_magic_0.Vb2_Vb3.t5 two_stage_opamp_dummy_magic_0.Vb2_Vb3.t7 two_stage_opamp_dummy_magic_0.Vb2_Vb3.t6 sky130_fd_pr__pfet_01v8 ad=1.4 pd=7.8 as=0 ps=0 w=3.5 l=0.2
X185 two_stage_opamp_dummy_magic_0.VD1.t10 two_stage_opamp_dummy_magic_0.Vb1.t19 two_stage_opamp_dummy_magic_0.X.t16 GNDA.t134 sky130_fd_pr__nfet_01v8 ad=0.3 pd=1.9 as=0.3 ps=1.9 w=1.5 l=0.15
X186 GNDA.t302 VDDA.t349 VDDA.t351 VDDA.t350 sky130_fd_pr__pfet_01v8 ad=0.4 pd=2.4 as=0.8 ps=4.8 w=2 l=0.15
X187 VDDA.t158 bgr_0.1st_Vout_1.t10 bgr_0.V_TOP.t4 VDDA.t157 sky130_fd_pr__pfet_01v8 ad=0.2 pd=1.4 as=0.2 ps=1.4 w=1 l=0.2
X188 bgr_0.cap_res2.t0 bgr_0.PFET_GATE_10uA.t1 GNDA.t84 sky130_fd_pr__res_high_po_0p35 l=2.05
X189 VOUT-.t51 two_stage_opamp_dummy_magic_0.cap_res_X.t106 sky130_fd_pr__cap_mim_m3_1 l=2 w=2
X190 VOUT+.t56 two_stage_opamp_dummy_magic_0.cap_res_Y.t101 sky130_fd_pr__cap_mim_m3_1 l=2 w=2
X191 VOUT-.t52 two_stage_opamp_dummy_magic_0.cap_res_X.t105 sky130_fd_pr__cap_mim_m3_1 l=2 w=2
X192 bgr_0.1st_Vout_2.t12 bgr_0.cap_res2.t16 sky130_fd_pr__cap_mim_m3_1 l=2 w=2
X193 VOUT-.t53 two_stage_opamp_dummy_magic_0.cap_res_X.t104 sky130_fd_pr__cap_mim_m3_1 l=2 w=2
X194 VOUT-.t54 two_stage_opamp_dummy_magic_0.cap_res_X.t103 sky130_fd_pr__cap_mim_m3_1 l=2 w=2
X195 GNDA.t222 GNDA.t220 VDDA.t93 GNDA.t221 sky130_fd_pr__nfet_01v8 ad=0.4 pd=2.8 as=0.2 ps=1.4 w=1 l=0.15
X196 VDDA.t348 VDDA.t345 VDDA.t347 VDDA.t346 sky130_fd_pr__pfet_01v8 ad=0.4 pd=2.8 as=0 ps=0 w=1 l=0.15
X197 GNDA.t159 GNDA.t219 bgr_0.sky130_fd_pr__rf_pnp_05v5_W3p40L3p40_25.Emitter.t4 sky130_fd_pr__pnp_05v5_W3p40L3p40
**devattr s=462400,2720
X198 VDDA.t219 bgr_0.PFET_GATE_10uA.t15 two_stage_opamp_dummy_magic_0.V_tail_gate.t6 VDDA.t218 sky130_fd_pr__pfet_01v8 ad=0.2 pd=1.4 as=0.2 ps=1.4 w=1 l=0.15
X199 two_stage_opamp_dummy_magic_0.X.t6 two_stage_opamp_dummy_magic_0.Vb2.t17 two_stage_opamp_dummy_magic_0.VD3.t5 two_stage_opamp_dummy_magic_0.VD3.t4 sky130_fd_pr__pfet_01v8 ad=0.7 pd=3.9 as=0.7 ps=3.9 w=3.5 l=0.2
X200 VOUT+.t57 two_stage_opamp_dummy_magic_0.cap_res_Y.t100 sky130_fd_pr__cap_mim_m3_1 l=2 w=2
X201 two_stage_opamp_dummy_magic_0.X.t13 two_stage_opamp_dummy_magic_0.Vb1.t20 two_stage_opamp_dummy_magic_0.VD1.t9 GNDA.t110 sky130_fd_pr__nfet_01v8 ad=0.3 pd=1.9 as=0.3 ps=1.9 w=1.5 l=0.15
X202 VOUT-.t55 two_stage_opamp_dummy_magic_0.cap_res_X.t102 sky130_fd_pr__cap_mim_m3_1 l=2 w=2
X203 VOUT+.t15 two_stage_opamp_dummy_magic_0.V_b_2nd_stage.t3 GNDA.t312 GNDA.t311 sky130_fd_pr__nfet_01v8 ad=1.4 pd=7.4 as=1.4 ps=7.4 w=7 l=0.6
X204 VOUT+.t58 two_stage_opamp_dummy_magic_0.cap_res_Y.t99 sky130_fd_pr__cap_mim_m3_1 l=2 w=2
X205 GNDA.t52 bgr_0.NFET_GATE_10uA.t7 VDDA.t212 GNDA.t51 sky130_fd_pr__nfet_01v8 ad=0.2 pd=1.4 as=0.2 ps=1.4 w=1 l=0.15
X206 VOUT-.t56 two_stage_opamp_dummy_magic_0.cap_res_X.t101 sky130_fd_pr__cap_mim_m3_1 l=2 w=2
X207 VOUT+.t59 two_stage_opamp_dummy_magic_0.cap_res_Y.t98 sky130_fd_pr__cap_mim_m3_1 l=2 w=2
X208 bgr_0.PFET_GATE_10uA.t9 bgr_0.1st_Vout_2.t13 VDDA.t426 VDDA.t425 sky130_fd_pr__pfet_01v8 ad=0.2 pd=1.4 as=0.2 ps=1.4 w=1 l=0.2
X209 a_6350_30458.t1 a_6470_28850.t1 GNDA.t78 sky130_fd_pr__res_xhigh_po_0p35 l=6
X210 VOUT-.t57 two_stage_opamp_dummy_magic_0.cap_res_X.t100 sky130_fd_pr__cap_mim_m3_1 l=2 w=2
X211 two_stage_opamp_dummy_magic_0.Vb1.t10 GNDA.t216 GNDA.t218 GNDA.t217 sky130_fd_pr__nfet_01v8 ad=0.3 pd=1.9 as=0.6 ps=3.8 w=1.5 l=0.15
X212 VDDA.t2 bgr_0.V_mir1.t8 bgr_0.V_mir1.t9 VDDA.t1 sky130_fd_pr__pfet_01v8 ad=0.2 pd=1.4 as=0.2 ps=1.4 w=1 l=0.2
X213 two_stage_opamp_dummy_magic_0.Y.t7 two_stage_opamp_dummy_magic_0.Vb2.t18 two_stage_opamp_dummy_magic_0.VD4.t20 two_stage_opamp_dummy_magic_0.VD4.t19 sky130_fd_pr__pfet_01v8 ad=0.7 pd=3.9 as=0.7 ps=3.9 w=3.5 l=0.2
X214 two_stage_opamp_dummy_magic_0.Y.t17 two_stage_opamp_dummy_magic_0.Vb1.t21 two_stage_opamp_dummy_magic_0.VD2.t19 GNDA.t270 sky130_fd_pr__nfet_01v8 ad=0.3 pd=1.9 as=0.3 ps=1.9 w=1.5 l=0.15
X215 VOUT+.t60 two_stage_opamp_dummy_magic_0.cap_res_Y.t97 sky130_fd_pr__cap_mim_m3_1 l=2 w=2
X216 two_stage_opamp_dummy_magic_0.VD4.t27 two_stage_opamp_dummy_magic_0.Vb3.t18 VDDA.t241 VDDA.t240 sky130_fd_pr__pfet_01v8 ad=0.7 pd=3.9 as=0.7 ps=3.9 w=3.5 l=0.2
X217 two_stage_opamp_dummy_magic_0.VD1.t17 GNDA.t213 GNDA.t215 GNDA.t214 sky130_fd_pr__nfet_01v8 ad=0.3 pd=1.9 as=0.6 ps=3.8 w=1.5 l=0.15
X218 VDDA.t82 bgr_0.1st_Vout_2.t14 bgr_0.PFET_GATE_10uA.t2 VDDA.t81 sky130_fd_pr__pfet_01v8 ad=0.2 pd=1.4 as=0.2 ps=1.4 w=1 l=0.2
X219 bgr_0.1st_Vout_1.t11 bgr_0.cap_res1.t17 sky130_fd_pr__cap_mim_m3_1 l=2 w=2
X220 VOUT-.t58 two_stage_opamp_dummy_magic_0.cap_res_X.t99 sky130_fd_pr__cap_mim_m3_1 l=2 w=2
X221 VOUT-.t59 two_stage_opamp_dummy_magic_0.cap_res_X.t98 sky130_fd_pr__cap_mim_m3_1 l=2 w=2
X222 VOUT-.t60 two_stage_opamp_dummy_magic_0.cap_res_X.t97 sky130_fd_pr__cap_mim_m3_1 l=2 w=2
X223 GNDA.t212 GNDA.t210 VDDA.t387 GNDA.t211 sky130_fd_pr__nfet_01v8 ad=1.2 pd=6.8 as=0.6 ps=3.4 w=3 l=0.15
X224 VDDA.t239 two_stage_opamp_dummy_magic_0.Vb3.t19 two_stage_opamp_dummy_magic_0.VD3.t25 VDDA.t238 sky130_fd_pr__pfet_01v8 ad=0.7 pd=3.9 as=0.7 ps=3.9 w=3.5 l=0.2
X225 GNDA.t50 bgr_0.NFET_GATE_10uA.t8 two_stage_opamp_dummy_magic_0.V_err_gate.t1 GNDA.t49 sky130_fd_pr__nfet_01v8 ad=0.2 pd=1.4 as=0.2 ps=1.4 w=1 l=0.15
X226 VDDA.t85 bgr_0.V_TOP.t25 two_stage_opamp_dummy_magic_0.V_err_amp_ref.t2 VDDA.t84 sky130_fd_pr__pfet_01v8 ad=0.6 pd=3.4 as=0.6 ps=3.4 w=3 l=0.5
X227 VOUT-.t61 two_stage_opamp_dummy_magic_0.cap_res_X.t96 sky130_fd_pr__cap_mim_m3_1 l=2 w=2
X228 VOUT-.t62 two_stage_opamp_dummy_magic_0.cap_res_X.t95 sky130_fd_pr__cap_mim_m3_1 l=2 w=2
X229 bgr_0.V_TOP.t12 VDDA.t342 VDDA.t344 VDDA.t343 sky130_fd_pr__pfet_01v8 ad=0.2 pd=1.4 as=0.45 ps=2.9 w=1 l=0.15
X230 a_3690_3288.t0 two_stage_opamp_dummy_magic_0.V_CMFB_S4.t0 GNDA.t114 sky130_fd_pr__res_xhigh_po_0p35 l=1.75
X231 VOUT+.t61 two_stage_opamp_dummy_magic_0.cap_res_Y.t96 sky130_fd_pr__cap_mim_m3_1 l=2 w=2
X232 VOUT-.t63 two_stage_opamp_dummy_magic_0.cap_res_X.t94 sky130_fd_pr__cap_mim_m3_1 l=2 w=2
X233 a_13960_3288.t0 two_stage_opamp_dummy_magic_0.V_tot.t0 GNDA.t17 sky130_fd_pr__res_xhigh_po_0p35 l=1.75
X234 GNDA.t159 GNDA.t209 bgr_0.sky130_fd_pr__rf_pnp_05v5_W3p40L3p40_25.Emitter.t3 sky130_fd_pr__pnp_05v5_W3p40L3p40
**devattr s=462400,2720
X235 a_12070_30308.t1 a_11950_29100.t1 GNDA.t118 sky130_fd_pr__res_xhigh_po_0p35 l=4
X236 bgr_0.1st_Vout_1.t12 bgr_0.cap_res1.t16 sky130_fd_pr__cap_mim_m3_1 l=2 w=2
X237 VOUT+.t62 two_stage_opamp_dummy_magic_0.cap_res_Y.t95 sky130_fd_pr__cap_mim_m3_1 l=2 w=2
X238 VOUT-.t64 two_stage_opamp_dummy_magic_0.cap_res_X.t93 sky130_fd_pr__cap_mim_m3_1 l=2 w=2
X239 two_stage_opamp_dummy_magic_0.V_source.t9 VIN+.t1 two_stage_opamp_dummy_magic_0.VD2.t8 GNDA.t315 sky130_fd_pr__nfet_01v8 ad=0.3 pd=1.9 as=0.3 ps=1.9 w=1.5 l=0.15
X240 VDDA.t95 bgr_0.V_mir2.t14 bgr_0.1st_Vout_2.t2 VDDA.t94 sky130_fd_pr__pfet_01v8 ad=0.2 pd=1.4 as=0.2 ps=1.4 w=1 l=0.2
X241 bgr_0.V_TOP.t26 VDDA.t103 sky130_fd_pr__cap_mim_m3_1 l=2 w=2