* PEX produced on Fri Jul  4 11:27:02 AM CEST 2025 using /foss/tools/osic-multitool/iic-pex.sh with m=3 and s=1
* NGSPICE file created from bgr_opamp_dummy_magic.ext - technology: sky130A

.subckt bgr_opamp_dummy_magic VDDA GNDA VOUT+ VOUT- VIN+ VIN-
X0 VDDA.t308 bgr_0.V_TOP.t14 bgr_0.Vin-.t4 VDDA.t307 sky130_fd_pr__pfet_01v8 ad=0.6 pd=3.4 as=0.6 ps=3.4 w=3 l=0.5
X1 two_stage_opamp_dummy_magic_0.err_amp_mir.t16 two_stage_opamp_dummy_magic_0.err_amp_mir.t15 a_9610_5930.t8 GNDA.t308 sky130_fd_pr__nfet_01v8 ad=0.1 pd=0.9 as=0.1 ps=0.9 w=0.5 l=0.15
X2 bgr_0.1st_Vout_1.t11 bgr_0.cap_res1.t19 sky130_fd_pr__cap_mim_m3_1 l=2 w=2
X3 bgr_0.V_TOP.t15 VDDA.t306 sky130_fd_pr__cap_mim_m3_1 l=2 w=2
X4 two_stage_opamp_dummy_magic_0.VD2.t8 GNDA.t174 GNDA.t176 GNDA.t175 sky130_fd_pr__nfet_01v8 ad=0.3 pd=1.9 as=0.6 ps=3.8 w=1.5 l=0.15
X5 two_stage_opamp_dummy_magic_0.VOUT-.t19 two_stage_opamp_dummy_magic_0.cap_res_X.t138 sky130_fd_pr__cap_mim_m3_1 l=2 w=2
X6 GNDA.t96 GNDA.t173 bgr_0.Vbe2.t7 sky130_fd_pr__pnp_05v5_W3p40L3p40
**devattr s=462400,2720
X7 two_stage_opamp_dummy_magic_0.V_CMFB_S1.t12 two_stage_opamp_dummy_magic_0.X.t13 GNDA.t185 VDDA.t118 sky130_fd_pr__pfet_01v8 ad=0.4 pd=2.4 as=0.4 ps=2.4 w=2 l=0.15
X8 two_stage_opamp_dummy_magic_0.VOUT-.t20 two_stage_opamp_dummy_magic_0.cap_res_X.t137 sky130_fd_pr__cap_mim_m3_1 l=2 w=2
X9 two_stage_opamp_dummy_magic_0.VOUT-.t21 two_stage_opamp_dummy_magic_0.cap_res_X.t136 sky130_fd_pr__cap_mim_m3_1 l=2 w=2
X10 bgr_0.NFET_GATE_10uA.t2 bgr_0.NFET_GATE_10uA.t1 GNDA.t278 GNDA.t277 sky130_fd_pr__nfet_01v8 ad=0.2 pd=1.4 as=0.2 ps=1.4 w=1 l=0.15
X11 bgr_0.1st_Vout_1.t12 bgr_0.cap_res1.t18 sky130_fd_pr__cap_mim_m3_1 l=2 w=2
X12 bgr_0.V_TOP.t16 VDDA.t305 sky130_fd_pr__cap_mim_m3_1 l=2 w=2
X13 VDDA.t115 bgr_0.V_mir2.t14 bgr_0.V_mir2.t15 VDDA.t114 sky130_fd_pr__pfet_01v8 ad=0.2 pd=1.4 as=0.2 ps=1.4 w=1 l=0.2
X14 two_stage_opamp_dummy_magic_0.V_err_gate.t7 two_stage_opamp_dummy_magic_0.V_err_amp_ref.t7 two_stage_opamp_dummy_magic_0.V_err_mir_p.t12 VDDA.t97 sky130_fd_pr__pfet_01v8 ad=0.1 pd=0.9 as=0.1 ps=0.9 w=0.5 l=0.15
X15 two_stage_opamp_dummy_magic_0.VOUT-.t22 two_stage_opamp_dummy_magic_0.cap_res_X.t135 sky130_fd_pr__cap_mim_m3_1 l=2 w=2
X16 two_stage_opamp_dummy_magic_0.VOUT-.t23 two_stage_opamp_dummy_magic_0.cap_res_X.t134 sky130_fd_pr__cap_mim_m3_1 l=2 w=2
X17 a_8420_8490.t10 two_stage_opamp_dummy_magic_0.Vb2.t11 two_stage_opamp_dummy_magic_0.VD3.t7 w_8160_8260.t15 sky130_fd_pr__pfet_01v8 ad=0.7 pd=3.9 as=0.7 ps=3.9 w=3.5 l=0.2
X18 VDDA.t154 two_stage_opamp_dummy_magic_0.Y.t13 two_stage_opamp_dummy_magic_0.VOUT+.t13 VDDA.t153 sky130_fd_pr__pfet_01v8 ad=1.2 pd=6.4 as=1.2 ps=6.4 w=6 l=0.15
X19 two_stage_opamp_dummy_magic_0.X.t1 two_stage_opamp_dummy_magic_0.Vb1.t6 two_stage_opamp_dummy_magic_0.VD2.t0 GNDA.t23 sky130_fd_pr__nfet_01v8 ad=0.3 pd=1.9 as=0.3 ps=1.9 w=1.5 l=0.15
X20 two_stage_opamp_dummy_magic_0.VOUT-.t24 two_stage_opamp_dummy_magic_0.cap_res_X.t133 sky130_fd_pr__cap_mim_m3_1 l=2 w=2
X21 two_stage_opamp_dummy_magic_0.VOUT-.t25 two_stage_opamp_dummy_magic_0.cap_res_X.t132 sky130_fd_pr__cap_mim_m3_1 l=2 w=2
X22 VDDA.t168 two_stage_opamp_dummy_magic_0.Y.t14 two_stage_opamp_dummy_magic_0.VOUT+.t12 VDDA.t167 sky130_fd_pr__pfet_01v8 ad=1.2 pd=6.4 as=1.2 ps=6.4 w=6 l=0.15
X23 VDDA.t230 bgr_0.PFET_GATE_10uA.t10 two_stage_opamp_dummy_magic_0.V_CMFB_S3.t16 VDDA.t229 sky130_fd_pr__pfet_01v8 ad=0.2 pd=1.4 as=0.2 ps=1.4 w=1 l=0.15
X24 two_stage_opamp_dummy_magic_0.VOUT-.t26 two_stage_opamp_dummy_magic_0.cap_res_X.t131 sky130_fd_pr__cap_mim_m3_1 l=2 w=2
X25 a_14520_5068.t0 two_stage_opamp_dummy_magic_0.V_CMFB_S4.t0 GNDA.t20 sky130_fd_pr__res_xhigh_po_0p35 l=1.75
X26 bgr_0.V_TOP.t17 VDDA.t304 sky130_fd_pr__cap_mim_m3_1 l=2 w=2
X27 two_stage_opamp_dummy_magic_0.VOUT-.t8 GNDA.t170 GNDA.t172 GNDA.t171 sky130_fd_pr__nfet_01v8 ad=1.4 pd=7.4 as=2.8 ps=14.8 w=7 l=0.6
X28 VDDA.t166 two_stage_opamp_dummy_magic_0.V_err_gate.t14 two_stage_opamp_dummy_magic_0.V_err_mir_p.t17 VDDA.t165 sky130_fd_pr__pfet_01v8 ad=0.1 pd=0.9 as=0.1 ps=0.9 w=0.5 l=0.15
X29 VDDA.t3 bgr_0.V_mir1.t17 bgr_0.1st_Vout_1.t0 VDDA.t2 sky130_fd_pr__pfet_01v8 ad=0.2 pd=1.4 as=0.2 ps=1.4 w=1 l=0.2
X30 two_stage_opamp_dummy_magic_0.VOUT+.t19 two_stage_opamp_dummy_magic_0.cap_res_Y.t138 sky130_fd_pr__cap_mim_m3_1 l=2 w=2
X31 bgr_0.START_UP_NFET1.t0 bgr_0.START_UP_NFET1 GNDA.t2 GNDA.t1 sky130_fd_pr__nfet_01v8 ad=0.2 pd=1.4 as=0.4 ps=2.8 w=1 l=10
X32 two_stage_opamp_dummy_magic_0.VOUT+.t20 two_stage_opamp_dummy_magic_0.cap_res_Y.t137 sky130_fd_pr__cap_mim_m3_1 l=2 w=2
X33 two_stage_opamp_dummy_magic_0.VOUT+.t21 two_stage_opamp_dummy_magic_0.cap_res_Y.t136 sky130_fd_pr__cap_mim_m3_1 l=2 w=2
X34 two_stage_opamp_dummy_magic_0.VOUT-.t27 two_stage_opamp_dummy_magic_0.cap_res_X.t130 sky130_fd_pr__cap_mim_m3_1 l=2 w=2
X35 two_stage_opamp_dummy_magic_0.VOUT-.t28 two_stage_opamp_dummy_magic_0.cap_res_X.t129 sky130_fd_pr__cap_mim_m3_1 l=2 w=2
X36 two_stage_opamp_dummy_magic_0.VOUT-.t29 two_stage_opamp_dummy_magic_0.cap_res_X.t128 sky130_fd_pr__cap_mim_m3_1 l=2 w=2
X37 two_stage_opamp_dummy_magic_0.VOUT+.t22 two_stage_opamp_dummy_magic_0.cap_res_Y.t135 sky130_fd_pr__cap_mim_m3_1 l=2 w=2
X38 bgr_0.1st_Vout_1.t13 bgr_0.cap_res1.t17 sky130_fd_pr__cap_mim_m3_1 l=2 w=2
X39 two_stage_opamp_dummy_magic_0.V_p_mir.t3 bgr_0.TAIL_CUR_MIR_BIAS.t12 GNDA.t46 GNDA.t45 sky130_fd_pr__nfet_01v8 ad=0.5 pd=2.9 as=0.5 ps=2.9 w=2.5 l=0.15
X40 VDDA.t13 two_stage_opamp_dummy_magic_0.X.t14 two_stage_opamp_dummy_magic_0.VOUT-.t1 VDDA.t12 sky130_fd_pr__pfet_01v8 ad=1.2 pd=6.4 as=1.2 ps=6.4 w=6 l=0.15
X41 two_stage_opamp_dummy_magic_0.V_CMFB_S4.t11 two_stage_opamp_dummy_magic_0.Y.t15 VDDA.t226 GNDA.t255 sky130_fd_pr__nfet_01v8 ad=0.6 pd=3.4 as=0.6 ps=3.4 w=3 l=0.15
X42 two_stage_opamp_dummy_magic_0.VOUT-.t30 two_stage_opamp_dummy_magic_0.cap_res_X.t127 sky130_fd_pr__cap_mim_m3_1 l=2 w=2
X43 bgr_0.V_mir2.t3 two_stage_opamp_dummy_magic_0.V_err_amp_ref.t8 bgr_0.V_p_2.t4 GNDA.t203 sky130_fd_pr__nfet_01v8 ad=0.1 pd=0.9 as=0.1 ps=0.9 w=0.5 l=0.2
X44 bgr_0.Vin-.t7 bgr_0.V_TOP.t18 VDDA.t303 VDDA.t302 sky130_fd_pr__pfet_01v8 ad=0.6 pd=3.4 as=0.6 ps=3.4 w=3 l=0.5
X45 VDDA.t423 VDDA.t421 two_stage_opamp_dummy_magic_0.V_err_gate.t12 VDDA.t422 sky130_fd_pr__pfet_01v8 ad=0.2 pd=1.8 as=0.1 ps=0.9 w=0.5 l=0.15
X46 GNDA.t284 bgr_0.NFET_GATE_10uA.t5 two_stage_opamp_dummy_magic_0.Vb2.t9 GNDA.t283 sky130_fd_pr__nfet_01v8 ad=0.2 pd=1.4 as=0.2 ps=1.4 w=1 l=0.15
X47 GNDA.t50 bgr_0.NFET_GATE_10uA.t6 two_stage_opamp_dummy_magic_0.Vb2.t8 GNDA.t49 sky130_fd_pr__nfet_01v8 ad=0.2 pd=1.4 as=0.2 ps=1.4 w=1 l=0.15
X48 two_stage_opamp_dummy_magic_0.V_err_p.t17 two_stage_opamp_dummy_magic_0.V_err_gate.t15 VDDA.t160 VDDA.t159 sky130_fd_pr__pfet_01v8 ad=0.1 pd=0.9 as=0.1 ps=0.9 w=0.5 l=0.15
X49 two_stage_opamp_dummy_magic_0.VOUT-.t31 two_stage_opamp_dummy_magic_0.cap_res_X.t126 sky130_fd_pr__cap_mim_m3_1 l=2 w=2
X50 two_stage_opamp_dummy_magic_0.VOUT+.t23 two_stage_opamp_dummy_magic_0.cap_res_Y.t134 sky130_fd_pr__cap_mim_m3_1 l=2 w=2
X51 a_8420_8490.t9 two_stage_opamp_dummy_magic_0.Vb2.t12 two_stage_opamp_dummy_magic_0.VD3.t13 w_8160_8260.t14 sky130_fd_pr__pfet_01v8 ad=0.7 pd=3.9 as=0.7 ps=3.9 w=3.5 l=0.2
X52 two_stage_opamp_dummy_magic_0.V_err_p.t18 two_stage_opamp_dummy_magic_0.V_tot.t4 two_stage_opamp_dummy_magic_0.err_amp_mir.t3 VDDA.t217 sky130_fd_pr__pfet_01v8 ad=0.1 pd=0.9 as=0.1 ps=0.9 w=0.5 l=0.15
X53 two_stage_opamp_dummy_magic_0.Y.t4 a_10530_5140# two_stage_opamp_dummy_magic_0.VD1.t17 GNDA.t248 sky130_fd_pr__nfet_01v8 ad=0.3 pd=1.9 as=0.3 ps=1.9 w=1.5 l=0.15
X54 two_stage_opamp_dummy_magic_0.VOUT+.t24 two_stage_opamp_dummy_magic_0.cap_res_Y.t133 sky130_fd_pr__cap_mim_m3_1 l=2 w=2
X55 two_stage_opamp_dummy_magic_0.VOUT-.t16 two_stage_opamp_dummy_magic_0.V_b_2nd_stage.t2 GNDA.t280 GNDA.t279 sky130_fd_pr__nfet_01v8 ad=1.4 pd=7.4 as=1.4 ps=7.4 w=7 l=0.6
X56 two_stage_opamp_dummy_magic_0.V_CMFB_S3.t10 two_stage_opamp_dummy_magic_0.Y.t16 GNDA.t190 VDDA.t127 sky130_fd_pr__pfet_01v8 ad=0.4 pd=2.4 as=0.4 ps=2.4 w=2 l=0.15
X57 bgr_0.1st_Vout_1.t10 bgr_0.Vin+.t6 bgr_0.V_p_1.t4 GNDA.t337 sky130_fd_pr__nfet_01v8 ad=0.1 pd=0.9 as=0.1 ps=0.9 w=0.5 l=0.2
X58 two_stage_opamp_dummy_magic_0.VOUT+.t25 two_stage_opamp_dummy_magic_0.cap_res_Y.t132 sky130_fd_pr__cap_mim_m3_1 l=2 w=2
X59 bgr_0.1st_Vout_2.t11 bgr_0.cap_res2.t19 sky130_fd_pr__cap_mim_m3_1 l=2 w=2
X60 GNDA.t72 bgr_0.TAIL_CUR_MIR_BIAS.t13 two_stage_opamp_dummy_magic_0.V_p.t39 GNDA.t71 sky130_fd_pr__nfet_01v8 ad=0.5 pd=2.9 as=0.5 ps=2.9 w=2.5 l=0.15
X61 VDDA.t420 VDDA.t418 bgr_0.V_TOP.t5 VDDA.t419 sky130_fd_pr__pfet_01v8 ad=0.4 pd=2.8 as=0.2 ps=1.4 w=1 l=0.2
X62 GNDA.t314 bgr_0.TAIL_CUR_MIR_BIAS.t14 two_stage_opamp_dummy_magic_0.V_p.t38 GNDA.t313 sky130_fd_pr__nfet_01v8 ad=0.5 pd=2.9 as=0.5 ps=2.9 w=2.5 l=0.15
X63 two_stage_opamp_dummy_magic_0.V_CMFB_S2.t14 two_stage_opamp_dummy_magic_0.X.t15 VDDA.t14 GNDA.t9 sky130_fd_pr__nfet_01v8 ad=0.6 pd=3.4 as=0.6 ps=3.4 w=3 l=0.15
X64 two_stage_opamp_dummy_magic_0.VD1.t7 VIN-.t0 two_stage_opamp_dummy_magic_0.V_p.t15 GNDA.t226 sky130_fd_pr__nfet_01v8 ad=0.3 pd=1.9 as=0.3 ps=1.9 w=1.5 l=0.15
X65 two_stage_opamp_dummy_magic_0.V_err_p.t16 two_stage_opamp_dummy_magic_0.V_err_gate.t16 VDDA.t162 VDDA.t161 sky130_fd_pr__pfet_01v8 ad=0.1 pd=0.9 as=0.1 ps=0.9 w=0.5 l=0.15
X66 two_stage_opamp_dummy_magic_0.VOUT+.t26 two_stage_opamp_dummy_magic_0.cap_res_Y.t131 sky130_fd_pr__cap_mim_m3_1 l=2 w=2
X67 GNDA.t52 bgr_0.NFET_GATE_10uA.t7 two_stage_opamp_dummy_magic_0.Vb2.t7 GNDA.t51 sky130_fd_pr__nfet_01v8 ad=0.2 pd=1.4 as=0.2 ps=1.4 w=1 l=0.15
X68 GNDA.t169 GNDA.t167 two_stage_opamp_dummy_magic_0.Vb2.t1 GNDA.t168 sky130_fd_pr__nfet_01v8 ad=0.4 pd=2.8 as=0.2 ps=1.4 w=1 l=0.15
X69 VDDA.t455 bgr_0.V_mir1.t18 bgr_0.1st_Vout_1.t8 VDDA.t454 sky130_fd_pr__pfet_01v8 ad=0.2 pd=1.4 as=0.2 ps=1.4 w=1 l=0.2
X70 two_stage_opamp_dummy_magic_0.VOUT-.t32 two_stage_opamp_dummy_magic_0.cap_res_X.t125 sky130_fd_pr__cap_mim_m3_1 l=2 w=2
X71 two_stage_opamp_dummy_magic_0.VOUT+.t27 two_stage_opamp_dummy_magic_0.cap_res_Y.t130 sky130_fd_pr__cap_mim_m3_1 l=2 w=2
X72 two_stage_opamp_dummy_magic_0.err_amp_out.t11 two_stage_opamp_dummy_magic_0.err_amp_mir.t17 a_9610_5930.t0 GNDA.t307 sky130_fd_pr__nfet_01v8 ad=0.1 pd=0.9 as=0.1 ps=0.9 w=0.5 l=0.15
X73 two_stage_opamp_dummy_magic_0.VOUT+.t28 two_stage_opamp_dummy_magic_0.cap_res_Y.t129 sky130_fd_pr__cap_mim_m3_1 l=2 w=2
X74 two_stage_opamp_dummy_magic_0.VOUT+.t29 two_stage_opamp_dummy_magic_0.cap_res_Y.t128 sky130_fd_pr__cap_mim_m3_1 l=2 w=2
X75 two_stage_opamp_dummy_magic_0.VOUT-.t33 two_stage_opamp_dummy_magic_0.cap_res_X.t124 sky130_fd_pr__cap_mim_m3_1 l=2 w=2
X76 two_stage_opamp_dummy_magic_0.VD1.t19 VIN-.t1 two_stage_opamp_dummy_magic_0.V_p.t18 GNDA.t259 sky130_fd_pr__nfet_01v8 ad=0.3 pd=1.9 as=0.3 ps=1.9 w=1.5 l=0.15
X77 two_stage_opamp_dummy_magic_0.VOUT+.t30 two_stage_opamp_dummy_magic_0.cap_res_Y.t127 sky130_fd_pr__cap_mim_m3_1 l=2 w=2
X78 bgr_0.NFET_GATE_10uA.t3 bgr_0.PFET_GATE_10uA.t11 VDDA.t201 VDDA.t200 sky130_fd_pr__pfet_01v8 ad=0.2 pd=1.4 as=0.2 ps=1.4 w=1 l=0.15
X79 two_stage_opamp_dummy_magic_0.err_amp_out.t10 two_stage_opamp_dummy_magic_0.err_amp_mir.t18 a_9610_5930.t1 GNDA.t306 sky130_fd_pr__nfet_01v8 ad=0.1 pd=0.9 as=0.1 ps=0.9 w=0.5 l=0.15
X80 bgr_0.1st_Vout_2.t12 bgr_0.cap_res2.t18 sky130_fd_pr__cap_mim_m3_1 l=2 w=2
X81 VDDA.t41 bgr_0.PFET_GATE_10uA.t12 bgr_0.TAIL_CUR_MIR_BIAS.t11 VDDA.t40 sky130_fd_pr__pfet_01v8 ad=0.2 pd=1.4 as=0.2 ps=1.4 w=1 l=0.15
X82 GNDA.t166 GNDA.t164 two_stage_opamp_dummy_magic_0.Y.t2 GNDA.t165 sky130_fd_pr__nfet_01v8 ad=0.6 pd=3.8 as=0.3 ps=1.9 w=1.5 l=0.15
X83 two_stage_opamp_dummy_magic_0.VOUT-.t34 two_stage_opamp_dummy_magic_0.cap_res_X.t123 sky130_fd_pr__cap_mim_m3_1 l=2 w=2
X84 VDDA.t417 VDDA.t415 bgr_0.NFET_GATE_10uA.t4 VDDA.t416 sky130_fd_pr__pfet_01v8 ad=0.4 pd=2.8 as=0.2 ps=1.4 w=1 l=0.15
X85 two_stage_opamp_dummy_magic_0.X.t5 GNDA.t161 GNDA.t163 GNDA.t162 sky130_fd_pr__nfet_01v8 ad=0.3 pd=1.9 as=0.6 ps=3.8 w=1.5 l=0.15
X86 VDDA.t449 two_stage_opamp_dummy_magic_0.Y.t17 two_stage_opamp_dummy_magic_0.VOUT+.t11 VDDA.t448 sky130_fd_pr__pfet_01v8 ad=1.2 pd=6.4 as=1.2 ps=6.4 w=6 l=0.15
X87 VDDA.t35 bgr_0.1st_Vout_1.t14 bgr_0.V_TOP.t0 VDDA.t34 sky130_fd_pr__pfet_01v8 ad=0.2 pd=1.4 as=0.2 ps=1.4 w=1 l=0.2
X88 GNDA.t160 GNDA.t158 two_stage_opamp_dummy_magic_0.VD1.t4 GNDA.t159 sky130_fd_pr__nfet_01v8 ad=0.6 pd=3.8 as=0.3 ps=1.9 w=1.5 l=0.15
X89 two_stage_opamp_dummy_magic_0.VOUT+.t31 two_stage_opamp_dummy_magic_0.cap_res_Y.t126 sky130_fd_pr__cap_mim_m3_1 l=2 w=2
X90 two_stage_opamp_dummy_magic_0.VD4.t19 VDDA.t412 VDDA.t414 VDDA.t413 sky130_fd_pr__pfet_01v8 ad=0.7 pd=3.9 as=1.4 ps=7.8 w=3.5 l=0.2
X91 two_stage_opamp_dummy_magic_0.VOUT+.t32 two_stage_opamp_dummy_magic_0.cap_res_Y.t125 sky130_fd_pr__cap_mim_m3_1 l=2 w=2
X92 two_stage_opamp_dummy_magic_0.VOUT-.t35 two_stage_opamp_dummy_magic_0.cap_res_X.t122 sky130_fd_pr__cap_mim_m3_1 l=2 w=2
X93 two_stage_opamp_dummy_magic_0.VOUT+.t33 two_stage_opamp_dummy_magic_0.cap_res_Y.t124 sky130_fd_pr__cap_mim_m3_1 l=2 w=2
X94 VDDA.t203 bgr_0.V_mir2.t12 bgr_0.V_mir2.t13 VDDA.t202 sky130_fd_pr__pfet_01v8 ad=0.2 pd=1.4 as=0.2 ps=1.4 w=1 l=0.2
X95 w_10220_8260.t5 w_10220_8260.t3 a_10480_8490.t1 w_10220_8260.t4 sky130_fd_pr__pfet_01v8 ad=1.4 pd=7.8 as=0.7 ps=3.9 w=3.5 l=0.2
X96 GNDA.t268 bgr_0.NFET_GATE_10uA.t8 two_stage_opamp_dummy_magic_0.Vb3.t7 GNDA.t267 sky130_fd_pr__nfet_01v8 ad=0.2 pd=1.4 as=0.2 ps=1.4 w=1 l=0.15
X97 VDDA.t156 two_stage_opamp_dummy_magic_0.V_err_gate.t17 two_stage_opamp_dummy_magic_0.V_err_p.t15 VDDA.t155 sky130_fd_pr__pfet_01v8 ad=0.1 pd=0.9 as=0.1 ps=0.9 w=0.5 l=0.15
X98 two_stage_opamp_dummy_magic_0.VOUT-.t36 two_stage_opamp_dummy_magic_0.cap_res_X.t121 sky130_fd_pr__cap_mim_m3_1 l=2 w=2
X99 two_stage_opamp_dummy_magic_0.Vb3.t6 bgr_0.NFET_GATE_10uA.t9 GNDA.t270 GNDA.t269 sky130_fd_pr__nfet_01v8 ad=0.2 pd=1.4 as=0.2 ps=1.4 w=1 l=0.15
X100 GNDA.t157 GNDA.t155 two_stage_opamp_dummy_magic_0.VD1.t3 GNDA.t156 sky130_fd_pr__nfet_01v8 ad=0.6 pd=3.8 as=0.3 ps=1.9 w=1.5 l=0.15
X101 VDDA.t213 bgr_0.1st_Vout_1.t15 bgr_0.V_TOP.t9 VDDA.t212 sky130_fd_pr__pfet_01v8 ad=0.2 pd=1.4 as=0.2 ps=1.4 w=1 l=0.2
X102 two_stage_opamp_dummy_magic_0.VOUT+.t34 two_stage_opamp_dummy_magic_0.cap_res_Y.t123 sky130_fd_pr__cap_mim_m3_1 l=2 w=2
X103 bgr_0.V_TOP.t13 bgr_0.cap_res1.t20 GNDA.t233 sky130_fd_pr__res_high_po_0p35 l=2.05
X104 two_stage_opamp_dummy_magic_0.V_CMFB_S4.t10 two_stage_opamp_dummy_magic_0.Y.t18 VDDA.t111 GNDA.t183 sky130_fd_pr__nfet_01v8 ad=0.6 pd=3.4 as=0.6 ps=3.4 w=3 l=0.15
X105 two_stage_opamp_dummy_magic_0.V_p.t37 bgr_0.TAIL_CUR_MIR_BIAS.t15 GNDA.t48 GNDA.t47 sky130_fd_pr__nfet_01v8 ad=0.5 pd=2.9 as=0.5 ps=2.9 w=2.5 l=0.15
X106 a_11220_17410.t0 GNDA.t30 GNDA.t29 sky130_fd_pr__res_xhigh_po_0p35 l=6
X107 two_stage_opamp_dummy_magic_0.V_CMFB_S4.t9 two_stage_opamp_dummy_magic_0.Y.t19 VDDA.t468 GNDA.t339 sky130_fd_pr__nfet_01v8 ad=0.6 pd=3.4 as=0.6 ps=3.4 w=3 l=0.15
X108 two_stage_opamp_dummy_magic_0.V_err_mir_p.t16 two_stage_opamp_dummy_magic_0.V_err_gate.t18 VDDA.t158 VDDA.t157 sky130_fd_pr__pfet_01v8 ad=0.1 pd=0.9 as=0.1 ps=0.9 w=0.5 l=0.15
X109 two_stage_opamp_dummy_magic_0.VOUT-.t37 two_stage_opamp_dummy_magic_0.cap_res_X.t120 sky130_fd_pr__cap_mim_m3_1 l=2 w=2
X110 two_stage_opamp_dummy_magic_0.Vb1.t0 bgr_0.PFET_GATE_10uA.t13 VDDA.t1 VDDA.t0 sky130_fd_pr__pfet_01v8 ad=0.2 pd=1.4 as=0.2 ps=1.4 w=1 l=0.15
X111 two_stage_opamp_dummy_magic_0.VOUT+.t35 two_stage_opamp_dummy_magic_0.cap_res_Y.t122 sky130_fd_pr__cap_mim_m3_1 l=2 w=2
X112 two_stage_opamp_dummy_magic_0.VOUT-.t6 a_5750_2276.t0 GNDA.t64 sky130_fd_pr__res_xhigh_po_0p35 l=2.63
X113 bgr_0.PFET_GATE_10uA.t3 bgr_0.1st_Vout_2.t13 VDDA.t240 VDDA.t239 sky130_fd_pr__pfet_01v8 ad=0.2 pd=1.4 as=0.2 ps=1.4 w=1 l=0.2
X114 two_stage_opamp_dummy_magic_0.VOUT+.t36 two_stage_opamp_dummy_magic_0.cap_res_Y.t121 sky130_fd_pr__cap_mim_m3_1 l=2 w=2
X115 GNDA.t55 bgr_0.TAIL_CUR_MIR_BIAS.t16 two_stage_opamp_dummy_magic_0.V_p.t36 GNDA.t54 sky130_fd_pr__nfet_01v8 ad=0.5 pd=2.9 as=0.5 ps=2.9 w=2.5 l=0.15
X116 two_stage_opamp_dummy_magic_0.VD4.t14 two_stage_opamp_dummy_magic_0.Vb3.t8 VDDA.t180 VDDA.t179 sky130_fd_pr__pfet_01v8 ad=0.7 pd=3.9 as=0.7 ps=3.9 w=3.5 l=0.2
X117 two_stage_opamp_dummy_magic_0.VOUT+.t37 two_stage_opamp_dummy_magic_0.cap_res_Y.t120 sky130_fd_pr__cap_mim_m3_1 l=2 w=2
X118 two_stage_opamp_dummy_magic_0.VOUT+.t38 two_stage_opamp_dummy_magic_0.cap_res_Y.t119 sky130_fd_pr__cap_mim_m3_1 l=2 w=2
X119 two_stage_opamp_dummy_magic_0.VOUT+.t39 two_stage_opamp_dummy_magic_0.cap_res_Y.t118 sky130_fd_pr__cap_mim_m3_1 l=2 w=2
X120 two_stage_opamp_dummy_magic_0.VOUT-.t38 two_stage_opamp_dummy_magic_0.cap_res_X.t119 sky130_fd_pr__cap_mim_m3_1 l=2 w=2
X121 two_stage_opamp_dummy_magic_0.VOUT-.t39 two_stage_opamp_dummy_magic_0.cap_res_X.t118 sky130_fd_pr__cap_mim_m3_1 l=2 w=2
X122 VDDA.t123 bgr_0.V_mir1.t10 bgr_0.V_mir1.t11 VDDA.t122 sky130_fd_pr__pfet_01v8 ad=0.2 pd=1.4 as=0.2 ps=1.4 w=1 l=0.2
X123 two_stage_opamp_dummy_magic_0.V_CMFB_S2.t13 two_stage_opamp_dummy_magic_0.X.t16 VDDA.t30 GNDA.t16 sky130_fd_pr__nfet_01v8 ad=0.6 pd=3.4 as=0.6 ps=3.4 w=3 l=0.15
X124 two_stage_opamp_dummy_magic_0.VOUT-.t40 two_stage_opamp_dummy_magic_0.cap_res_X.t117 sky130_fd_pr__cap_mim_m3_1 l=2 w=2
X125 two_stage_opamp_dummy_magic_0.VOUT-.t41 two_stage_opamp_dummy_magic_0.cap_res_X.t116 sky130_fd_pr__cap_mim_m3_1 l=2 w=2
X126 two_stage_opamp_dummy_magic_0.err_amp_mir.t10 two_stage_opamp_dummy_magic_0.err_amp_mir.t9 a_9610_5930.t7 GNDA.t305 sky130_fd_pr__nfet_01v8 ad=0.1 pd=0.9 as=0.1 ps=0.9 w=0.5 l=0.15
X127 two_stage_opamp_dummy_magic_0.VOUT-.t42 two_stage_opamp_dummy_magic_0.cap_res_X.t115 sky130_fd_pr__cap_mim_m3_1 l=2 w=2
X128 bgr_0.1st_Vout_1.t16 bgr_0.cap_res1.t16 sky130_fd_pr__cap_mim_m3_1 l=2 w=2
X129 VDDA.t5 bgr_0.1st_Vout_2.t14 bgr_0.PFET_GATE_10uA.t0 VDDA.t4 sky130_fd_pr__pfet_01v8 ad=0.2 pd=1.4 as=0.2 ps=1.4 w=1 l=0.2
X130 two_stage_opamp_dummy_magic_0.VD3.t3 two_stage_opamp_dummy_magic_0.Vb3.t9 VDDA.t133 VDDA.t132 sky130_fd_pr__pfet_01v8 ad=0.7 pd=3.9 as=0.7 ps=3.9 w=3.5 l=0.2
X131 two_stage_opamp_dummy_magic_0.V_CMFB_S1.t11 two_stage_opamp_dummy_magic_0.X.t17 GNDA.t17 VDDA.t31 sky130_fd_pr__pfet_01v8 ad=0.4 pd=2.4 as=0.4 ps=2.4 w=2 l=0.15
X132 bgr_0.V_TOP.t19 VDDA.t301 sky130_fd_pr__cap_mim_m3_1 l=2 w=2
X133 two_stage_opamp_dummy_magic_0.VD3.t12 two_stage_opamp_dummy_magic_0.Vb2.t13 a_8420_8490.t8 w_8160_8260.t13 sky130_fd_pr__pfet_01v8 ad=0.7 pd=3.9 as=0.7 ps=3.9 w=3.5 l=0.2
X134 two_stage_opamp_dummy_magic_0.VOUT+.t40 two_stage_opamp_dummy_magic_0.cap_res_Y.t117 sky130_fd_pr__cap_mim_m3_1 l=2 w=2
X135 bgr_0.1st_Vout_1.t17 bgr_0.cap_res1.t15 sky130_fd_pr__cap_mim_m3_1 l=2 w=2
X136 two_stage_opamp_dummy_magic_0.VD1.t16 a_10530_5140# two_stage_opamp_dummy_magic_0.Y.t10 GNDA.t247 sky130_fd_pr__nfet_01v8 ad=0.3 pd=1.9 as=0.3 ps=1.9 w=1.5 l=0.15
X137 two_stage_opamp_dummy_magic_0.VOUT+.t41 two_stage_opamp_dummy_magic_0.cap_res_Y.t116 sky130_fd_pr__cap_mim_m3_1 l=2 w=2
X138 a_14640_5068.t0 two_stage_opamp_dummy_magic_0.V_CMFB_S3.t0 GNDA.t78 sky130_fd_pr__res_xhigh_po_0p35 l=1.75
X139 two_stage_opamp_dummy_magic_0.X.t8 two_stage_opamp_dummy_magic_0.Vb1.t7 two_stage_opamp_dummy_magic_0.VD2.t15 GNDA.t234 sky130_fd_pr__nfet_01v8 ad=0.3 pd=1.9 as=0.3 ps=1.9 w=1.5 l=0.15
X140 two_stage_opamp_dummy_magic_0.V_CMFB_S2.t1 GNDA.t152 GNDA.t154 GNDA.t153 sky130_fd_pr__nfet_01v8 ad=0.2 pd=1.4 as=0.4 ps=2.8 w=1 l=0.15
X141 two_stage_opamp_dummy_magic_0.VOUT+.t42 two_stage_opamp_dummy_magic_0.cap_res_Y.t115 sky130_fd_pr__cap_mim_m3_1 l=2 w=2
X142 two_stage_opamp_dummy_magic_0.VOUT-.t43 two_stage_opamp_dummy_magic_0.cap_res_X.t114 sky130_fd_pr__cap_mim_m3_1 l=2 w=2
X143 two_stage_opamp_dummy_magic_0.V_p.t5 VIN+.t0 two_stage_opamp_dummy_magic_0.VD2.t5 GNDA.t67 sky130_fd_pr__nfet_01v8 ad=0.3 pd=1.9 as=0.3 ps=1.9 w=1.5 l=0.15
X144 two_stage_opamp_dummy_magic_0.VOUT+.t43 two_stage_opamp_dummy_magic_0.cap_res_Y.t114 sky130_fd_pr__cap_mim_m3_1 l=2 w=2
X145 VDDA.t209 bgr_0.V_mir2.t17 bgr_0.1st_Vout_2.t5 VDDA.t208 sky130_fd_pr__pfet_01v8 ad=0.2 pd=1.4 as=0.2 ps=1.4 w=1 l=0.2
X146 two_stage_opamp_dummy_magic_0.VOUT-.t44 two_stage_opamp_dummy_magic_0.cap_res_X.t113 sky130_fd_pr__cap_mim_m3_1 l=2 w=2
X147 two_stage_opamp_dummy_magic_0.VOUT-.t45 two_stage_opamp_dummy_magic_0.cap_res_X.t112 sky130_fd_pr__cap_mim_m3_1 l=2 w=2
X148 bgr_0.1st_Vout_1.t18 bgr_0.cap_res1.t14 sky130_fd_pr__cap_mim_m3_1 l=2 w=2
X149 a_13730_17020.t1 two_stage_opamp_dummy_magic_0.V_err_amp_ref.t0 GNDA.t27 sky130_fd_pr__res_xhigh_po_0p35 l=6.3
X150 GNDA.t230 two_stage_opamp_dummy_magic_0.X.t18 two_stage_opamp_dummy_magic_0.V_CMFB_S1.t10 VDDA.t193 sky130_fd_pr__pfet_01v8 ad=0.4 pd=2.4 as=0.4 ps=2.4 w=2 l=0.15
X151 two_stage_opamp_dummy_magic_0.V_p.t16 VIN+.t1 two_stage_opamp_dummy_magic_0.VD2.t17 GNDA.t237 sky130_fd_pr__nfet_01v8 ad=0.3 pd=1.9 as=0.3 ps=1.9 w=1.5 l=0.15
X152 two_stage_opamp_dummy_magic_0.VOUT+.t44 two_stage_opamp_dummy_magic_0.cap_res_Y.t113 sky130_fd_pr__cap_mim_m3_1 l=2 w=2
X153 bgr_0.V_CUR_REF_REG.t0 VDDA.t409 VDDA.t411 VDDA.t410 sky130_fd_pr__pfet_01v8 ad=0.2 pd=1.4 as=0.4 ps=2.8 w=1 l=0.15
X154 a_11220_17410.t1 a_12828_17530.t1 GNDA.t29 sky130_fd_pr__res_xhigh_po_0p35 l=6
X155 two_stage_opamp_dummy_magic_0.VOUT+.t45 two_stage_opamp_dummy_magic_0.cap_res_Y.t112 sky130_fd_pr__cap_mim_m3_1 l=2 w=2
X156 VDDA.t195 two_stage_opamp_dummy_magic_0.X.t19 two_stage_opamp_dummy_magic_0.VOUT-.t13 VDDA.t194 sky130_fd_pr__pfet_01v8 ad=1.2 pd=6.4 as=1.2 ps=6.4 w=6 l=0.15
X157 two_stage_opamp_dummy_magic_0.VOUT-.t46 two_stage_opamp_dummy_magic_0.cap_res_X.t111 sky130_fd_pr__cap_mim_m3_1 l=2 w=2
X158 bgr_0.TAIL_CUR_MIR_BIAS.t10 bgr_0.PFET_GATE_10uA.t14 VDDA.t199 VDDA.t198 sky130_fd_pr__pfet_01v8 ad=0.2 pd=1.4 as=0.2 ps=1.4 w=1 l=0.15
X159 two_stage_opamp_dummy_magic_0.V_CMFB_S4.t8 two_stage_opamp_dummy_magic_0.Y.t20 VDDA.t70 GNDA.t59 sky130_fd_pr__nfet_01v8 ad=0.6 pd=3.4 as=0.6 ps=3.4 w=3 l=0.15
X160 two_stage_opamp_dummy_magic_0.VOUT+.t46 two_stage_opamp_dummy_magic_0.cap_res_Y.t111 sky130_fd_pr__cap_mim_m3_1 l=2 w=2
X161 two_stage_opamp_dummy_magic_0.VOUT+.t47 two_stage_opamp_dummy_magic_0.cap_res_Y.t110 sky130_fd_pr__cap_mim_m3_1 l=2 w=2
X162 two_stage_opamp_dummy_magic_0.V_p.t35 bgr_0.TAIL_CUR_MIR_BIAS.t17 GNDA.t182 GNDA.t181 sky130_fd_pr__nfet_01v8 ad=0.5 pd=2.9 as=0.5 ps=2.9 w=2.5 l=0.15
X163 VDDA.t437 bgr_0.PFET_GATE_10uA.t15 bgr_0.V_CUR_REF_REG.t2 VDDA.t436 sky130_fd_pr__pfet_01v8 ad=0.2 pd=1.4 as=0.2 ps=1.4 w=1 l=0.15
X164 two_stage_opamp_dummy_magic_0.VD4.t3 two_stage_opamp_dummy_magic_0.Vb3.t10 VDDA.t131 VDDA.t130 sky130_fd_pr__pfet_01v8 ad=0.7 pd=3.9 as=0.7 ps=3.9 w=3.5 l=0.2
X165 two_stage_opamp_dummy_magic_0.VOUT+.t48 two_stage_opamp_dummy_magic_0.cap_res_Y.t109 sky130_fd_pr__cap_mim_m3_1 l=2 w=2
X166 bgr_0.PFET_GATE_10uA.t2 bgr_0.cap_res2.t20 GNDA.t233 sky130_fd_pr__res_high_po_0p35 l=2.05
X167 two_stage_opamp_dummy_magic_0.VD3.t11 two_stage_opamp_dummy_magic_0.Vb2.t14 a_8420_8490.t7 w_8160_8260.t12 sky130_fd_pr__pfet_01v8 ad=0.7 pd=3.9 as=0.7 ps=3.9 w=3.5 l=0.2
X168 bgr_0.V_p_1.t9 bgr_0.Vin-.t8 bgr_0.V_mir1.t13 GNDA.t289 sky130_fd_pr__nfet_01v8 ad=0.1 pd=0.9 as=0.1 ps=0.9 w=0.5 l=0.2
X169 VDDA.t459 bgr_0.V_mir1.t8 bgr_0.V_mir1.t9 VDDA.t458 sky130_fd_pr__pfet_01v8 ad=0.2 pd=1.4 as=0.2 ps=1.4 w=1 l=0.2
X170 two_stage_opamp_dummy_magic_0.VOUT+.t49 two_stage_opamp_dummy_magic_0.cap_res_Y.t108 sky130_fd_pr__cap_mim_m3_1 l=2 w=2
X171 two_stage_opamp_dummy_magic_0.VOUT+.t50 two_stage_opamp_dummy_magic_0.cap_res_Y.t107 sky130_fd_pr__cap_mim_m3_1 l=2 w=2
X172 GNDA.t151 GNDA.t149 two_stage_opamp_dummy_magic_0.X.t4 GNDA.t150 sky130_fd_pr__nfet_01v8 ad=0.6 pd=3.8 as=0.3 ps=1.9 w=1.5 l=0.15
X173 bgr_0.1st_Vout_2.t15 bgr_0.cap_res2.t17 sky130_fd_pr__cap_mim_m3_1 l=2 w=2
X174 two_stage_opamp_dummy_magic_0.VOUT-.t47 two_stage_opamp_dummy_magic_0.cap_res_X.t110 sky130_fd_pr__cap_mim_m3_1 l=2 w=2
X175 two_stage_opamp_dummy_magic_0.VOUT-.t48 two_stage_opamp_dummy_magic_0.cap_res_X.t109 sky130_fd_pr__cap_mim_m3_1 l=2 w=2
X176 VDDA.t121 bgr_0.1st_Vout_1.t19 bgr_0.V_TOP.t4 VDDA.t120 sky130_fd_pr__pfet_01v8 ad=0.2 pd=1.4 as=0.2 ps=1.4 w=1 l=0.2
X177 VDDA.t300 bgr_0.V_TOP.t20 two_stage_opamp_dummy_magic_0.V_err_amp_ref.t4 VDDA.t299 sky130_fd_pr__pfet_01v8 ad=0.6 pd=3.4 as=0.6 ps=3.4 w=3 l=0.5
X178 two_stage_opamp_dummy_magic_0.VOUT-.t49 two_stage_opamp_dummy_magic_0.cap_res_X.t108 sky130_fd_pr__cap_mim_m3_1 l=2 w=2
X179 GNDA.t220 bgr_0.TAIL_CUR_MIR_BIAS.t18 two_stage_opamp_dummy_magic_0.V_p.t34 GNDA.t219 sky130_fd_pr__nfet_01v8 ad=0.5 pd=2.9 as=0.5 ps=2.9 w=2.5 l=0.15
X180 two_stage_opamp_dummy_magic_0.VOUT-.t50 two_stage_opamp_dummy_magic_0.cap_res_X.t107 sky130_fd_pr__cap_mim_m3_1 l=2 w=2
X181 bgr_0.V_p_2.t9 bgr_0.V_CUR_REF_REG.t3 bgr_0.1st_Vout_2.t9 GNDA.t312 sky130_fd_pr__nfet_01v8 ad=0.1 pd=0.9 as=0.1 ps=0.9 w=0.5 l=0.2
X182 two_stage_opamp_dummy_magic_0.VOUT-.t51 two_stage_opamp_dummy_magic_0.cap_res_X.t106 sky130_fd_pr__cap_mim_m3_1 l=2 w=2
X183 two_stage_opamp_dummy_magic_0.VOUT+.t51 two_stage_opamp_dummy_magic_0.cap_res_Y.t106 sky130_fd_pr__cap_mim_m3_1 l=2 w=2
X184 two_stage_opamp_dummy_magic_0.VOUT-.t12 two_stage_opamp_dummy_magic_0.X.t20 VDDA.t191 VDDA.t190 sky130_fd_pr__pfet_01v8 ad=1.2 pd=6.4 as=1.2 ps=6.4 w=6 l=0.15
X185 two_stage_opamp_dummy_magic_0.VOUT+.t52 two_stage_opamp_dummy_magic_0.cap_res_Y.t105 sky130_fd_pr__cap_mim_m3_1 l=2 w=2
X186 bgr_0.V_p_1.t8 bgr_0.Vin-.t9 bgr_0.V_mir1.t12 GNDA.t288 sky130_fd_pr__nfet_01v8 ad=0.1 pd=0.9 as=0.1 ps=0.9 w=0.5 l=0.2
X187 bgr_0.1st_Vout_2.t16 bgr_0.cap_res2.t16 sky130_fd_pr__cap_mim_m3_1 l=2 w=2
X188 GNDA.t191 bgr_0.TAIL_CUR_MIR_BIAS.t19 two_stage_opamp_dummy_magic_0.V_p.t33 GNDA.t147 sky130_fd_pr__nfet_01v8 ad=0.5 pd=2.9 as=0.5 ps=2.9 w=2.5 l=0.15
X189 bgr_0.V_TOP.t3 VDDA.t406 VDDA.t408 VDDA.t407 sky130_fd_pr__pfet_01v8 ad=0.2 pd=1.4 as=0.4 ps=2.8 w=1 l=0.15
X190 two_stage_opamp_dummy_magic_0.VOUT-.t52 two_stage_opamp_dummy_magic_0.cap_res_X.t105 sky130_fd_pr__cap_mim_m3_1 l=2 w=2
X191 bgr_0.Vin-.t2 bgr_0.START_UP.t6 bgr_0.V_TOP.t7 VDDA.t206 sky130_fd_pr__pfet_01v8 ad=0.2 pd=1.4 as=0.2 ps=1.4 w=1 l=0.15
X192 VDDA.t405 VDDA.t403 two_stage_opamp_dummy_magic_0.V_err_p.t21 VDDA.t404 sky130_fd_pr__pfet_01v8 ad=0.2 pd=1.8 as=0.1 ps=0.9 w=0.5 l=0.15
X193 two_stage_opamp_dummy_magic_0.VD1.t15 a_10530_5140# two_stage_opamp_dummy_magic_0.Y.t7 GNDA.t246 sky130_fd_pr__nfet_01v8 ad=0.3 pd=1.9 as=0.3 ps=1.9 w=1.5 l=0.15
X194 two_stage_opamp_dummy_magic_0.VOUT-.t53 two_stage_opamp_dummy_magic_0.cap_res_X.t104 sky130_fd_pr__cap_mim_m3_1 l=2 w=2
X195 two_stage_opamp_dummy_magic_0.VOUT+.t53 two_stage_opamp_dummy_magic_0.cap_res_Y.t104 sky130_fd_pr__cap_mim_m3_1 l=2 w=2
X196 bgr_0.1st_Vout_1.t20 bgr_0.cap_res1.t13 sky130_fd_pr__cap_mim_m3_1 l=2 w=2
X197 bgr_0.V_TOP.t21 VDDA.t290 sky130_fd_pr__cap_mim_m3_1 l=2 w=2
X198 two_stage_opamp_dummy_magic_0.err_amp_out.t5 two_stage_opamp_dummy_magic_0.V_err_amp_ref.t9 two_stage_opamp_dummy_magic_0.V_err_p.t6 VDDA.t136 sky130_fd_pr__pfet_01v8 ad=0.1 pd=0.9 as=0.1 ps=0.9 w=0.5 l=0.15
X199 two_stage_opamp_dummy_magic_0.VOUT-.t54 two_stage_opamp_dummy_magic_0.cap_res_X.t103 sky130_fd_pr__cap_mim_m3_1 l=2 w=2
X200 two_stage_opamp_dummy_magic_0.VOUT-.t55 two_stage_opamp_dummy_magic_0.cap_res_X.t102 sky130_fd_pr__cap_mim_m3_1 l=2 w=2
X201 VDDA.t425 two_stage_opamp_dummy_magic_0.Vb3.t11 two_stage_opamp_dummy_magic_0.VD4.t20 VDDA.t424 sky130_fd_pr__pfet_01v8 ad=0.7 pd=3.9 as=0.7 ps=3.9 w=3.5 l=0.2
X202 GNDA.t218 two_stage_opamp_dummy_magic_0.Y.t21 two_stage_opamp_dummy_magic_0.V_CMFB_S3.t9 VDDA.t172 sky130_fd_pr__pfet_01v8 ad=0.4 pd=2.4 as=0.4 ps=2.4 w=2 l=0.15
X203 two_stage_opamp_dummy_magic_0.VOUT-.t56 two_stage_opamp_dummy_magic_0.cap_res_X.t101 sky130_fd_pr__cap_mim_m3_1 l=2 w=2
X204 two_stage_opamp_dummy_magic_0.V_p.t32 bgr_0.TAIL_CUR_MIR_BIAS.t20 GNDA.t196 GNDA.t195 sky130_fd_pr__nfet_01v8 ad=0.5 pd=2.9 as=0.5 ps=2.9 w=2.5 l=0.15
X205 a_13730_17020.t0 GNDA.t28 GNDA.t27 sky130_fd_pr__res_xhigh_po_0p35 l=6.3
X206 bgr_0.1st_Vout_1.t21 bgr_0.cap_res1.t12 sky130_fd_pr__cap_mim_m3_1 l=2 w=2
X207 bgr_0.V_TOP.t22 VDDA.t289 sky130_fd_pr__cap_mim_m3_1 l=2 w=2
X208 w_8160_8260.t5 w_8160_8260.t3 a_8420_8490.t11 w_8160_8260.t4 sky130_fd_pr__pfet_01v8 ad=1.4 pd=7.8 as=0.7 ps=3.9 w=3.5 l=0.2
X209 two_stage_opamp_dummy_magic_0.V_err_amp_ref.t6 VDDA.t400 VDDA.t402 VDDA.t401 sky130_fd_pr__pfet_01v8 ad=0.6 pd=3.4 as=1.2 ps=6.8 w=3 l=0.5
X210 a_11220_17290.t1 a_12828_17650.t1 GNDA.t29 sky130_fd_pr__res_xhigh_po_0p35 l=6
X211 VDDA.t248 two_stage_opamp_dummy_magic_0.Vb3.t12 two_stage_opamp_dummy_magic_0.VD3.t18 VDDA.t247 sky130_fd_pr__pfet_01v8 ad=0.7 pd=3.9 as=0.7 ps=3.9 w=3.5 l=0.2
X212 two_stage_opamp_dummy_magic_0.VOUT+.t54 two_stage_opamp_dummy_magic_0.cap_res_Y.t103 sky130_fd_pr__cap_mim_m3_1 l=2 w=2
X213 two_stage_opamp_dummy_magic_0.VOUT+.t55 two_stage_opamp_dummy_magic_0.cap_res_Y.t102 sky130_fd_pr__cap_mim_m3_1 l=2 w=2
X214 two_stage_opamp_dummy_magic_0.VOUT+.t56 two_stage_opamp_dummy_magic_0.cap_res_Y.t101 sky130_fd_pr__cap_mim_m3_1 l=2 w=2
X215 two_stage_opamp_dummy_magic_0.VOUT-.t57 two_stage_opamp_dummy_magic_0.cap_res_X.t100 sky130_fd_pr__cap_mim_m3_1 l=2 w=2
X216 bgr_0.V_p_2.t8 bgr_0.V_CUR_REF_REG.t4 bgr_0.1st_Vout_2.t8 GNDA.t295 sky130_fd_pr__nfet_01v8 ad=0.1 pd=0.9 as=0.2 ps=1.8 w=0.5 l=0.2
X217 two_stage_opamp_dummy_magic_0.V_CMFB_S1.t1 bgr_0.PFET_GATE_10uA.t16 VDDA.t95 VDDA.t94 sky130_fd_pr__pfet_01v8 ad=0.2 pd=1.4 as=0.2 ps=1.4 w=1 l=0.15
X218 two_stage_opamp_dummy_magic_0.VOUT+.t57 two_stage_opamp_dummy_magic_0.cap_res_Y.t100 sky130_fd_pr__cap_mim_m3_1 l=2 w=2
X219 VDDA.t183 bgr_0.PFET_GATE_10uA.t17 two_stage_opamp_dummy_magic_0.V_CMFB_S1.t2 VDDA.t182 sky130_fd_pr__pfet_01v8 ad=0.2 pd=1.4 as=0.2 ps=1.4 w=1 l=0.15
X220 two_stage_opamp_dummy_magic_0.V_p.t4 VIN+.t2 two_stage_opamp_dummy_magic_0.VD2.t4 GNDA.t66 sky130_fd_pr__nfet_01v8 ad=0.3 pd=1.9 as=0.3 ps=1.9 w=1.5 l=0.15
X221 two_stage_opamp_dummy_magic_0.VOUT-.t58 two_stage_opamp_dummy_magic_0.cap_res_X.t99 sky130_fd_pr__cap_mim_m3_1 l=2 w=2
X222 GNDA.t75 two_stage_opamp_dummy_magic_0.V_b_2nd_stage.t3 two_stage_opamp_dummy_magic_0.VOUT+.t0 GNDA.t74 sky130_fd_pr__nfet_01v8 ad=1.4 pd=7.4 as=1.4 ps=7.4 w=7 l=0.6