* PEX produced on Sun Jul  6 07:26:22 PM CEST 2025 using /foss/tools/osic-multitool/iic-pex.sh with m=3 and s=1
* NGSPICE file created from bgr_opamp_dummy_magic.ext - technology: sky130A

.subckt bgr_opamp_dummy_magic VDDA GNDA VOUT+ VOUT- VIN+ VIN-
X0 VDDA.t311 bgr_0.V_TOP.t14 bgr_0.Vin-.t3 VDDA.t310 sky130_fd_pr__pfet_01v8 ad=0.6 pd=3.4 as=0.6 ps=3.4 w=3 l=0.5
X1 bgr_0.1st_Vout_1.t11 bgr_0.cap_res1.t19 sky130_fd_pr__cap_mim_m3_1 l=2 w=2
X2 bgr_0.V_TOP.t15 VDDA.t309 sky130_fd_pr__cap_mim_m3_1 l=2 w=2
X3 a_14710_5068.t1 two_stage_opamp_dummy_magic_0.V_tot.t1 GNDA.t165 sky130_fd_pr__res_xhigh_po_0p35 l=1.75
X4 two_stage_opamp_dummy_magic_0.VD2.t13 GNDA.t310 GNDA.t312 GNDA.t311 sky130_fd_pr__nfet_01v8 ad=0.3 pd=1.9 as=0.6 ps=3.8 w=1.5 l=0.15
X5 VOUT-.t19 two_stage_opamp_dummy_magic_0.cap_res_Y.t137 sky130_fd_pr__cap_mim_m3_1 l=2 w=2
X6 GNDA.t40 two_stage_opamp_dummy_magic_0.err_amp_mir.t17 two_stage_opamp_dummy_magic_0.err_amp_out.t9 GNDA.t39 sky130_fd_pr__nfet_01v8 ad=0.1 pd=0.9 as=0.1 ps=0.9 w=0.5 l=0.15
X7 GNDA.t230 GNDA.t309 bgr_0.Vbe2.t8 sky130_fd_pr__pnp_05v5_W3p40L3p40
**devattr s=462400,2720
X8 two_stage_opamp_dummy_magic_0.V_CMFB_S3.t9 two_stage_opamp_dummy_magic_0.Y.t25 GNDA.t162 VDDA.t196 sky130_fd_pr__pfet_01v8 ad=0.4 pd=2.4 as=0.4 ps=2.4 w=2 l=0.15
X9 VOUT-.t20 two_stage_opamp_dummy_magic_0.cap_res_Y.t136 sky130_fd_pr__cap_mim_m3_1 l=2 w=2
X10 VOUT-.t21 two_stage_opamp_dummy_magic_0.cap_res_Y.t135 sky130_fd_pr__cap_mim_m3_1 l=2 w=2
X11 bgr_0.NFET_GATE_10uA.t2 bgr_0.NFET_GATE_10uA.t1 GNDA.t325 GNDA.t324 sky130_fd_pr__nfet_01v8 ad=0.2 pd=1.4 as=0.2 ps=1.4 w=1 l=0.15
X12 bgr_0.1st_Vout_1.t12 bgr_0.cap_res1.t18 sky130_fd_pr__cap_mim_m3_1 l=2 w=2
X13 two_stage_opamp_dummy_magic_0.V_err_gate.t11 two_stage_opamp_dummy_magic_0.V_err_amp_ref.t7 two_stage_opamp_dummy_magic_0.V_err_mir_p.t12 VDDA.t254 sky130_fd_pr__pfet_01v8 ad=0.1 pd=0.9 as=0.1 ps=0.9 w=0.5 l=0.15
X14 bgr_0.V_TOP.t16 VDDA.t308 sky130_fd_pr__cap_mim_m3_1 l=2 w=2
X15 VDDA.t125 bgr_0.V_mir2.t15 bgr_0.V_mir2.t16 VDDA.t124 sky130_fd_pr__pfet_01v8 ad=0.2 pd=1.4 as=0.2 ps=1.4 w=1 l=0.2
X16 VOUT-.t22 two_stage_opamp_dummy_magic_0.cap_res_Y.t134 sky130_fd_pr__cap_mim_m3_1 l=2 w=2
X17 VOUT-.t23 two_stage_opamp_dummy_magic_0.cap_res_Y.t133 sky130_fd_pr__cap_mim_m3_1 l=2 w=2
X18 two_stage_opamp_dummy_magic_0.Y.t4 two_stage_opamp_dummy_magic_0.Vb2.t11 two_stage_opamp_dummy_magic_0.VD4.t22 two_stage_opamp_dummy_magic_0.VD4.t21 sky130_fd_pr__pfet_01v8 ad=0.7 pd=3.9 as=0.7 ps=3.9 w=3.5 l=0.2
X19 VDDA.t139 two_stage_opamp_dummy_magic_0.X.t25 VOUT+.t11 VDDA.t138 sky130_fd_pr__pfet_01v8 ad=1.2 pd=6.4 as=1.2 ps=6.4 w=6 l=0.15
X20 VOUT-.t24 two_stage_opamp_dummy_magic_0.cap_res_Y.t132 sky130_fd_pr__cap_mim_m3_1 l=2 w=2
X21 VOUT-.t25 two_stage_opamp_dummy_magic_0.cap_res_Y.t131 sky130_fd_pr__cap_mim_m3_1 l=2 w=2
X22 VDDA.t137 two_stage_opamp_dummy_magic_0.X.t26 VOUT+.t10 VDDA.t136 sky130_fd_pr__pfet_01v8 ad=1.2 pd=6.4 as=1.2 ps=6.4 w=6 l=0.15
X23 VDDA.t116 bgr_0.PFET_GATE_10uA.t10 two_stage_opamp_dummy_magic_0.V_CMFB_S3.t10 VDDA.t115 sky130_fd_pr__pfet_01v8 ad=0.2 pd=1.4 as=0.2 ps=1.4 w=1 l=0.15
X24 VOUT-.t26 two_stage_opamp_dummy_magic_0.cap_res_Y.t130 sky130_fd_pr__cap_mim_m3_1 l=2 w=2
X25 VOUT+.t18 GNDA.t306 GNDA.t308 GNDA.t307 sky130_fd_pr__nfet_01v8 ad=1.4 pd=7.4 as=2.8 ps=14.8 w=7 l=0.6
X26 two_stage_opamp_dummy_magic_0.X.t18 two_stage_opamp_dummy_magic_0.Vb1.t6 two_stage_opamp_dummy_magic_0.VD1.t10 GNDA.t110 sky130_fd_pr__nfet_01v8 ad=0.3 pd=1.9 as=0.3 ps=1.9 w=1.5 l=0.15
X27 bgr_0.V_TOP.t17 VDDA.t307 sky130_fd_pr__cap_mim_m3_1 l=2 w=2
X28 VDDA.t80 two_stage_opamp_dummy_magic_0.V_err_gate.t14 two_stage_opamp_dummy_magic_0.V_err_mir_p.t1 VDDA.t79 sky130_fd_pr__pfet_01v8 ad=0.1 pd=0.9 as=0.1 ps=0.9 w=0.5 l=0.15
X29 a_5160_5068.t0 two_stage_opamp_dummy_magic_0.V_CMFB_S4.t13 GNDA.t180 sky130_fd_pr__res_xhigh_po_0p35 l=1.75
X30 VDDA.t156 bgr_0.V_mir1.t17 bgr_0.1st_Vout_1.t5 VDDA.t155 sky130_fd_pr__pfet_01v8 ad=0.2 pd=1.4 as=0.2 ps=1.4 w=1 l=0.2
X31 VOUT+.t19 two_stage_opamp_dummy_magic_0.cap_res_X.t137 sky130_fd_pr__cap_mim_m3_1 l=2 w=2
X32 bgr_0.START_UP_NFET1.t0 bgr_0.START_UP_NFET1 GNDA.t126 GNDA.t125 sky130_fd_pr__nfet_01v8 ad=0.2 pd=1.4 as=0.4 ps=2.8 w=1 l=10
X33 VOUT+.t20 two_stage_opamp_dummy_magic_0.cap_res_X.t136 sky130_fd_pr__cap_mim_m3_1 l=2 w=2
X34 VOUT+.t21 two_stage_opamp_dummy_magic_0.cap_res_X.t135 sky130_fd_pr__cap_mim_m3_1 l=2 w=2
X35 VDDA.t44 two_stage_opamp_dummy_magic_0.X.t27 two_stage_opamp_dummy_magic_0.V_CMFB_S2.t12 GNDA.t45 sky130_fd_pr__nfet_01v8 ad=0.8 pd=4.4 as=0.8 ps=4.4 w=4 l=0.15
X36 VOUT-.t27 two_stage_opamp_dummy_magic_0.cap_res_Y.t129 sky130_fd_pr__cap_mim_m3_1 l=2 w=2
X37 VOUT-.t28 two_stage_opamp_dummy_magic_0.cap_res_Y.t128 sky130_fd_pr__cap_mim_m3_1 l=2 w=2
X38 VOUT-.t29 two_stage_opamp_dummy_magic_0.cap_res_Y.t127 sky130_fd_pr__cap_mim_m3_1 l=2 w=2
X39 VOUT+.t22 two_stage_opamp_dummy_magic_0.cap_res_X.t134 sky130_fd_pr__cap_mim_m3_1 l=2 w=2
X40 bgr_0.1st_Vout_1.t13 bgr_0.cap_res1.t17 sky130_fd_pr__cap_mim_m3_1 l=2 w=2
X41 VOUT-.t6 two_stage_opamp_dummy_magic_0.V_b_2nd_stage.t2 GNDA.t156 GNDA.t155 sky130_fd_pr__nfet_01v8 ad=1.4 pd=7.4 as=1.4 ps=7.4 w=7 l=0.6
X42 VDDA.t198 two_stage_opamp_dummy_magic_0.Y.t26 VOUT-.t7 VDDA.t197 sky130_fd_pr__pfet_01v8 ad=1.2 pd=6.4 as=1.2 ps=6.4 w=6 l=0.15
X43 VDDA.t426 VDDA.t424 two_stage_opamp_dummy_magic_0.V_err_gate.t13 VDDA.t425 sky130_fd_pr__pfet_01v8 ad=0.2 pd=1.8 as=0.1 ps=0.9 w=0.5 l=0.15
X44 VOUT-.t30 two_stage_opamp_dummy_magic_0.cap_res_Y.t126 sky130_fd_pr__cap_mim_m3_1 l=2 w=2
X45 bgr_0.V_mir2.t0 two_stage_opamp_dummy_magic_0.V_err_amp_ref.t8 bgr_0.V_p_2.t8 GNDA.t95 sky130_fd_pr__nfet_01v8 ad=0.1 pd=0.9 as=0.1 ps=0.9 w=0.5 l=0.2
X46 bgr_0.Vin-.t4 bgr_0.V_TOP.t18 VDDA.t306 VDDA.t305 sky130_fd_pr__pfet_01v8 ad=0.6 pd=3.4 as=0.6 ps=3.4 w=3 l=0.5
X47 GNDA.t28 bgr_0.NFET_GATE_10uA.t5 two_stage_opamp_dummy_magic_0.V_CMFB_S2.t2 GNDA.t27 sky130_fd_pr__nfet_01v8 ad=0.2 pd=1.4 as=0.2 ps=1.4 w=1 l=0.15
X48 GNDA.t168 bgr_0.NFET_GATE_10uA.t6 two_stage_opamp_dummy_magic_0.V_CMFB_S2.t1 GNDA.t167 sky130_fd_pr__nfet_01v8 ad=0.2 pd=1.4 as=0.2 ps=1.4 w=1 l=0.15
X49 two_stage_opamp_dummy_magic_0.V_err_p.t14 two_stage_opamp_dummy_magic_0.V_err_gate.t15 VDDA.t252 VDDA.t251 sky130_fd_pr__pfet_01v8 ad=0.1 pd=0.9 as=0.1 ps=0.9 w=0.5 l=0.15
X50 VOUT-.t31 two_stage_opamp_dummy_magic_0.cap_res_Y.t125 sky130_fd_pr__cap_mim_m3_1 l=2 w=2
X51 VOUT+.t23 two_stage_opamp_dummy_magic_0.cap_res_X.t133 sky130_fd_pr__cap_mim_m3_1 l=2 w=2
X52 two_stage_opamp_dummy_magic_0.V_err_p.t4 two_stage_opamp_dummy_magic_0.V_tot.t4 two_stage_opamp_dummy_magic_0.err_amp_mir.t4 VDDA.t447 sky130_fd_pr__pfet_01v8 ad=0.1 pd=0.9 as=0.1 ps=0.9 w=0.5 l=0.15
X53 two_stage_opamp_dummy_magic_0.Y.t19 two_stage_opamp_dummy_magic_0.Vb2.t12 two_stage_opamp_dummy_magic_0.VD4.t20 two_stage_opamp_dummy_magic_0.VD4.t19 sky130_fd_pr__pfet_01v8 ad=0.7 pd=3.9 as=0.7 ps=3.9 w=3.5 l=0.2
X54 VOUT+.t24 two_stage_opamp_dummy_magic_0.cap_res_X.t132 sky130_fd_pr__cap_mim_m3_1 l=2 w=2
X55 VDDA.t194 two_stage_opamp_dummy_magic_0.Y.t27 two_stage_opamp_dummy_magic_0.V_CMFB_S4.t12 GNDA.t157 sky130_fd_pr__nfet_01v8 ad=0.8 pd=4.4 as=0.8 ps=4.4 w=4 l=0.15
X56 two_stage_opamp_dummy_magic_0.V_CMFB_S1.t13 two_stage_opamp_dummy_magic_0.X.t28 GNDA.t19 VDDA.t10 sky130_fd_pr__pfet_01v8 ad=0.4 pd=2.4 as=0.4 ps=2.4 w=2 l=0.15
X57 bgr_0.1st_Vout_1.t2 bgr_0.Vin+.t6 bgr_0.V_p_1.t4 GNDA.t34 sky130_fd_pr__nfet_01v8 ad=0.1 pd=0.9 as=0.1 ps=0.9 w=0.5 l=0.2
X58 VOUT+.t25 two_stage_opamp_dummy_magic_0.cap_res_X.t131 sky130_fd_pr__cap_mim_m3_1 l=2 w=2
X59 bgr_0.1st_Vout_2.t11 bgr_0.cap_res2.t19 sky130_fd_pr__cap_mim_m3_1 l=2 w=2
X60 VDDA.t423 VDDA.t421 bgr_0.V_TOP.t0 VDDA.t422 sky130_fd_pr__pfet_01v8 ad=0.4 pd=2.8 as=0.2 ps=1.4 w=1 l=0.2
X61 two_stage_opamp_dummy_magic_0.VD1.t21 VIN-.t0 two_stage_opamp_dummy_magic_0.V_source.t24 GNDA.t328 sky130_fd_pr__nfet_01v8 ad=0.3 pd=1.9 as=0.3 ps=1.9 w=1.5 l=0.15
X62 two_stage_opamp_dummy_magic_0.V_err_p.t13 two_stage_opamp_dummy_magic_0.V_err_gate.t16 VDDA.t127 VDDA.t126 sky130_fd_pr__pfet_01v8 ad=0.1 pd=0.9 as=0.1 ps=0.9 w=0.5 l=0.15
X63 VOUT+.t26 two_stage_opamp_dummy_magic_0.cap_res_X.t130 sky130_fd_pr__cap_mim_m3_1 l=2 w=2
X64 GNDA.t170 bgr_0.NFET_GATE_10uA.t7 two_stage_opamp_dummy_magic_0.Vb2.t7 GNDA.t169 sky130_fd_pr__nfet_01v8 ad=0.2 pd=1.4 as=0.2 ps=1.4 w=1 l=0.15
X65 GNDA.t305 GNDA.t303 two_stage_opamp_dummy_magic_0.Vb2.t10 GNDA.t304 sky130_fd_pr__nfet_01v8 ad=0.4 pd=2.8 as=0.2 ps=1.4 w=1 l=0.15
X66 VDDA.t160 bgr_0.V_mir1.t18 bgr_0.1st_Vout_1.t6 VDDA.t159 sky130_fd_pr__pfet_01v8 ad=0.2 pd=1.4 as=0.2 ps=1.4 w=1 l=0.2
X67 VOUT-.t32 two_stage_opamp_dummy_magic_0.cap_res_Y.t124 sky130_fd_pr__cap_mim_m3_1 l=2 w=2
X68 VOUT+.t27 two_stage_opamp_dummy_magic_0.cap_res_X.t129 sky130_fd_pr__cap_mim_m3_1 l=2 w=2
X69 two_stage_opamp_dummy_magic_0.Y.t8 two_stage_opamp_dummy_magic_0.Vb1.t7 two_stage_opamp_dummy_magic_0.VD2.t4 GNDA.t81 sky130_fd_pr__nfet_01v8 ad=0.3 pd=1.9 as=0.3 ps=1.9 w=1.5 l=0.15
X70 VOUT+.t28 two_stage_opamp_dummy_magic_0.cap_res_X.t128 sky130_fd_pr__cap_mim_m3_1 l=2 w=2
X71 VOUT+.t29 two_stage_opamp_dummy_magic_0.cap_res_X.t127 sky130_fd_pr__cap_mim_m3_1 l=2 w=2
X72 VOUT-.t33 two_stage_opamp_dummy_magic_0.cap_res_Y.t123 sky130_fd_pr__cap_mim_m3_1 l=2 w=2
X73 GNDA.t164 two_stage_opamp_dummy_magic_0.err_amp_mir.t13 two_stage_opamp_dummy_magic_0.err_amp_mir.t14 GNDA.t163 sky130_fd_pr__nfet_01v8 ad=0.1 pd=0.9 as=0.1 ps=0.9 w=0.5 l=0.15
X74 two_stage_opamp_dummy_magic_0.VD1.t19 VIN-.t1 two_stage_opamp_dummy_magic_0.V_source.t23 GNDA.t322 sky130_fd_pr__nfet_01v8 ad=0.3 pd=1.9 as=0.3 ps=1.9 w=1.5 l=0.15
X75 VOUT+.t30 two_stage_opamp_dummy_magic_0.cap_res_X.t126 sky130_fd_pr__cap_mim_m3_1 l=2 w=2
X76 bgr_0.NFET_GATE_10uA.t0 bgr_0.PFET_GATE_10uA.t11 VDDA.t74 VDDA.t73 sky130_fd_pr__pfet_01v8 ad=0.2 pd=1.4 as=0.2 ps=1.4 w=1 l=0.15
X77 bgr_0.1st_Vout_2.t12 bgr_0.cap_res2.t18 sky130_fd_pr__cap_mim_m3_1 l=2 w=2
X78 VDDA.t49 bgr_0.PFET_GATE_10uA.t12 two_stage_opamp_dummy_magic_0.V_tail_gate.t7 VDDA.t48 sky130_fd_pr__pfet_01v8 ad=0.2 pd=1.4 as=0.2 ps=1.4 w=1 l=0.15
X79 VOUT-.t34 two_stage_opamp_dummy_magic_0.cap_res_Y.t122 sky130_fd_pr__cap_mim_m3_1 l=2 w=2
X80 VDDA.t420 VDDA.t418 bgr_0.NFET_GATE_10uA.t3 VDDA.t419 sky130_fd_pr__pfet_01v8 ad=0.4 pd=2.8 as=0.2 ps=1.4 w=1 l=0.15
X81 VDDA.t12 two_stage_opamp_dummy_magic_0.X.t29 VOUT+.t9 VDDA.t11 sky130_fd_pr__pfet_01v8 ad=1.2 pd=6.4 as=1.2 ps=6.4 w=6 l=0.15
X82 GNDA.t42 two_stage_opamp_dummy_magic_0.err_amp_mir.t11 two_stage_opamp_dummy_magic_0.err_amp_mir.t12 GNDA.t41 sky130_fd_pr__nfet_01v8 ad=0.1 pd=0.9 as=0.1 ps=0.9 w=0.5 l=0.15
X83 VDDA.t67 bgr_0.1st_Vout_1.t14 bgr_0.V_TOP.t3 VDDA.t66 sky130_fd_pr__pfet_01v8 ad=0.2 pd=1.4 as=0.2 ps=1.4 w=1 l=0.2
X84 GNDA.t302 GNDA.t300 two_stage_opamp_dummy_magic_0.VD1.t18 GNDA.t301 sky130_fd_pr__nfet_01v8 ad=0.6 pd=3.8 as=0.3 ps=1.9 w=1.5 l=0.15
X85 VOUT+.t31 two_stage_opamp_dummy_magic_0.cap_res_X.t125 sky130_fd_pr__cap_mim_m3_1 l=2 w=2
X86 two_stage_opamp_dummy_magic_0.VD3.t30 VDDA.t415 VDDA.t417 VDDA.t416 sky130_fd_pr__pfet_01v8 ad=0.7 pd=3.9 as=1.4 ps=7.8 w=3.5 l=0.2
X87 VOUT+.t32 two_stage_opamp_dummy_magic_0.cap_res_X.t124 sky130_fd_pr__cap_mim_m3_1 l=2 w=2
X88 VOUT+.t14 a_14240_2076.t0 GNDA.t150 sky130_fd_pr__res_xhigh_po_0p35 l=2.63
X89 VOUT-.t35 two_stage_opamp_dummy_magic_0.cap_res_Y.t121 sky130_fd_pr__cap_mim_m3_1 l=2 w=2
X90 VOUT+.t33 two_stage_opamp_dummy_magic_0.cap_res_X.t123 sky130_fd_pr__cap_mim_m3_1 l=2 w=2
X91 VDDA.t39 bgr_0.V_mir2.t13 bgr_0.V_mir2.t14 VDDA.t38 sky130_fd_pr__pfet_01v8 ad=0.2 pd=1.4 as=0.2 ps=1.4 w=1 l=0.2
X92 two_stage_opamp_dummy_magic_0.Vb3.t1 two_stage_opamp_dummy_magic_0.Vb2.t13 two_stage_opamp_dummy_magic_0.Vb2_Vb3.t9 two_stage_opamp_dummy_magic_0.Vb2_Vb3.t8 sky130_fd_pr__pfet_01v8 ad=0.72 pd=4 as=0.72 ps=4 w=3.6 l=0.2
X93 two_stage_opamp_dummy_magic_0.X.t3 two_stage_opamp_dummy_magic_0.Vb1.t8 two_stage_opamp_dummy_magic_0.VD1.t9 GNDA.t80 sky130_fd_pr__nfet_01v8 ad=0.3 pd=1.9 as=0.3 ps=1.9 w=1.5 l=0.15
X94 two_stage_opamp_dummy_magic_0.VD3.t37 two_stage_opamp_dummy_magic_0.VD3.t35 two_stage_opamp_dummy_magic_0.X.t19 two_stage_opamp_dummy_magic_0.VD3.t36 sky130_fd_pr__pfet_01v8 ad=1.4 pd=7.8 as=0.7 ps=3.9 w=3.5 l=0.2
X95 GNDA.t176 bgr_0.NFET_GATE_10uA.t8 two_stage_opamp_dummy_magic_0.Vb3.t6 GNDA.t175 sky130_fd_pr__nfet_01v8 ad=0.2 pd=1.4 as=0.2 ps=1.4 w=1 l=0.15
X96 VDDA.t63 two_stage_opamp_dummy_magic_0.V_err_gate.t17 two_stage_opamp_dummy_magic_0.V_err_p.t12 VDDA.t62 sky130_fd_pr__pfet_01v8 ad=0.1 pd=0.9 as=0.1 ps=0.9 w=0.5 l=0.15
X97 VOUT-.t36 two_stage_opamp_dummy_magic_0.cap_res_Y.t120 sky130_fd_pr__cap_mim_m3_1 l=2 w=2
X98 two_stage_opamp_dummy_magic_0.Vb3.t5 bgr_0.NFET_GATE_10uA.t9 GNDA.t117 GNDA.t116 sky130_fd_pr__nfet_01v8 ad=0.2 pd=1.4 as=0.2 ps=1.4 w=1 l=0.15
X99 GNDA.t299 GNDA.t297 two_stage_opamp_dummy_magic_0.VD1.t17 GNDA.t298 sky130_fd_pr__nfet_01v8 ad=0.6 pd=3.8 as=0.3 ps=1.9 w=1.5 l=0.15
X100 VDDA.t90 two_stage_opamp_dummy_magic_0.X.t30 two_stage_opamp_dummy_magic_0.V_CMFB_S2.t11 GNDA.t89 sky130_fd_pr__nfet_01v8 ad=0.8 pd=4.4 as=0.8 ps=4.4 w=4 l=0.15
X101 VDDA.t65 bgr_0.1st_Vout_1.t15 bgr_0.V_TOP.t2 VDDA.t64 sky130_fd_pr__pfet_01v8 ad=0.2 pd=1.4 as=0.2 ps=1.4 w=1 l=0.2
X102 VOUT+.t34 two_stage_opamp_dummy_magic_0.cap_res_X.t122 sky130_fd_pr__cap_mim_m3_1 l=2 w=2
X103 bgr_0.V_TOP.t13 bgr_0.cap_res1.t20 GNDA.t148 sky130_fd_pr__res_high_po_0p35 l=2.05
X104 a_11220_17410.t0 GNDA.t22 GNDA.t21 sky130_fd_pr__res_xhigh_po_0p35 l=6
X105 VDDA.t23 two_stage_opamp_dummy_magic_0.Vb3.t8 two_stage_opamp_dummy_magic_0.Vb2_Vb3.t7 VDDA.t22 sky130_fd_pr__pfet_01v8 ad=0.71 pd=3.95 as=0.71 ps=3.95 w=3.55 l=0.2
X106 two_stage_opamp_dummy_magic_0.V_err_mir_p.t18 two_stage_opamp_dummy_magic_0.V_err_gate.t18 VDDA.t466 VDDA.t465 sky130_fd_pr__pfet_01v8 ad=0.1 pd=0.9 as=0.1 ps=0.9 w=0.5 l=0.15
X107 VOUT-.t37 two_stage_opamp_dummy_magic_0.cap_res_Y.t119 sky130_fd_pr__cap_mim_m3_1 l=2 w=2
X108 two_stage_opamp_dummy_magic_0.V_source.t27 two_stage_opamp_dummy_magic_0.err_amp_out.t12 GNDA.t187 GNDA.t186 sky130_fd_pr__nfet_01v8 ad=0.5 pd=2.9 as=0.5 ps=2.9 w=2.5 l=0.15
X109 two_stage_opamp_dummy_magic_0.Vb1.t1 bgr_0.PFET_GATE_10uA.t13 VDDA.t107 VDDA.t106 sky130_fd_pr__pfet_01v8 ad=0.2 pd=1.4 as=0.2 ps=1.4 w=1 l=0.15
X110 VDDA.t195 two_stage_opamp_dummy_magic_0.Y.t28 two_stage_opamp_dummy_magic_0.V_CMFB_S4.t11 GNDA.t158 sky130_fd_pr__nfet_01v8 ad=0.8 pd=4.4 as=0.8 ps=4.4 w=4 l=0.15
X111 VOUT+.t35 two_stage_opamp_dummy_magic_0.cap_res_X.t121 sky130_fd_pr__cap_mim_m3_1 l=2 w=2
X112 VDDA.t255 two_stage_opamp_dummy_magic_0.Y.t29 two_stage_opamp_dummy_magic_0.V_CMFB_S4.t10 GNDA.t200 sky130_fd_pr__nfet_01v8 ad=0.8 pd=4.4 as=0.8 ps=4.4 w=4 l=0.15
X113 bgr_0.PFET_GATE_10uA.t2 bgr_0.1st_Vout_2.t13 VDDA.t112 VDDA.t111 sky130_fd_pr__pfet_01v8 ad=0.2 pd=1.4 as=0.2 ps=1.4 w=1 l=0.2
X114 VOUT+.t36 two_stage_opamp_dummy_magic_0.cap_res_X.t120 sky130_fd_pr__cap_mim_m3_1 l=2 w=2
X115 two_stage_opamp_dummy_magic_0.V_source.t8 two_stage_opamp_dummy_magic_0.Vb1.t2 two_stage_opamp_dummy_magic_0.Vb1.t3 GNDA.t10 sky130_fd_pr__nfet_01v8 ad=0.4 pd=2.8 as=0.4 ps=2.8 w=1 l=2.9
X116 two_stage_opamp_dummy_magic_0.VD3.t25 two_stage_opamp_dummy_magic_0.Vb3.t9 VDDA.t189 VDDA.t188 sky130_fd_pr__pfet_01v8 ad=0.7 pd=3.9 as=0.7 ps=3.9 w=3.5 l=0.2
X117 VOUT+.t37 two_stage_opamp_dummy_magic_0.cap_res_X.t119 sky130_fd_pr__cap_mim_m3_1 l=2 w=2
X118 VOUT+.t38 two_stage_opamp_dummy_magic_0.cap_res_X.t118 sky130_fd_pr__cap_mim_m3_1 l=2 w=2
X119 VOUT+.t39 two_stage_opamp_dummy_magic_0.cap_res_X.t117 sky130_fd_pr__cap_mim_m3_1 l=2 w=2
X120 VOUT-.t38 two_stage_opamp_dummy_magic_0.cap_res_Y.t118 sky130_fd_pr__cap_mim_m3_1 l=2 w=2
X121 VOUT-.t39 two_stage_opamp_dummy_magic_0.cap_res_Y.t117 sky130_fd_pr__cap_mim_m3_1 l=2 w=2
X122 VDDA.t53 bgr_0.V_mir1.t10 bgr_0.V_mir1.t11 VDDA.t52 sky130_fd_pr__pfet_01v8 ad=0.2 pd=1.4 as=0.2 ps=1.4 w=1 l=0.2
X123 VOUT-.t40 two_stage_opamp_dummy_magic_0.cap_res_Y.t116 sky130_fd_pr__cap_mim_m3_1 l=2 w=2
X124 a_14590_5068.t1 two_stage_opamp_dummy_magic_0.V_tot.t3 GNDA.t344 sky130_fd_pr__res_xhigh_po_0p35 l=1.75
X125 two_stage_opamp_dummy_magic_0.Y.t15 two_stage_opamp_dummy_magic_0.Vb1.t9 two_stage_opamp_dummy_magic_0.VD2.t8 GNDA.t109 sky130_fd_pr__nfet_01v8 ad=0.3 pd=1.9 as=0.3 ps=1.9 w=1.5 l=0.15
X126 VOUT-.t41 two_stage_opamp_dummy_magic_0.cap_res_Y.t115 sky130_fd_pr__cap_mim_m3_1 l=2 w=2
X127 GNDA.t327 two_stage_opamp_dummy_magic_0.V_b_2nd_stage.t3 VOUT-.t18 GNDA.t326 sky130_fd_pr__nfet_01v8 ad=1.4 pd=7.4 as=1.4 ps=7.4 w=7 l=0.6
X128 VOUT-.t42 two_stage_opamp_dummy_magic_0.cap_res_Y.t114 sky130_fd_pr__cap_mim_m3_1 l=2 w=2
X129 bgr_0.1st_Vout_1.t16 bgr_0.cap_res1.t16 sky130_fd_pr__cap_mim_m3_1 l=2 w=2
X130 VDDA.t47 bgr_0.1st_Vout_2.t14 bgr_0.PFET_GATE_10uA.t0 VDDA.t46 sky130_fd_pr__pfet_01v8 ad=0.2 pd=1.4 as=0.2 ps=1.4 w=1 l=0.2
X131 two_stage_opamp_dummy_magic_0.VD4.t26 two_stage_opamp_dummy_magic_0.Vb3.t10 VDDA.t191 VDDA.t190 sky130_fd_pr__pfet_01v8 ad=0.7 pd=3.9 as=0.7 ps=3.9 w=3.5 l=0.2
X132 two_stage_opamp_dummy_magic_0.V_CMFB_S3.t8 two_stage_opamp_dummy_magic_0.Y.t30 GNDA.t201 VDDA.t256 sky130_fd_pr__pfet_01v8 ad=0.4 pd=2.4 as=0.4 ps=2.4 w=2 l=0.15
X133 bgr_0.V_TOP.t19 VDDA.t304 sky130_fd_pr__cap_mim_m3_1 l=2 w=2
X134 GNDA.t36 two_stage_opamp_dummy_magic_0.err_amp_mir.t18 two_stage_opamp_dummy_magic_0.err_amp_out.t8 GNDA.t35 sky130_fd_pr__nfet_01v8 ad=0.1 pd=0.9 as=0.1 ps=0.9 w=0.5 l=0.15
X135 two_stage_opamp_dummy_magic_0.VD4.t18 two_stage_opamp_dummy_magic_0.Vb2.t14 two_stage_opamp_dummy_magic_0.Y.t2 two_stage_opamp_dummy_magic_0.VD4.t17 sky130_fd_pr__pfet_01v8 ad=0.7 pd=3.9 as=0.7 ps=3.9 w=3.5 l=0.2
X136 VOUT+.t40 two_stage_opamp_dummy_magic_0.cap_res_X.t116 sky130_fd_pr__cap_mim_m3_1 l=2 w=2
X137 bgr_0.1st_Vout_1.t17 bgr_0.cap_res1.t15 sky130_fd_pr__cap_mim_m3_1 l=2 w=2
X138 two_stage_opamp_dummy_magic_0.cap_res_X.t138 two_stage_opamp_dummy_magic_0.X.t20 GNDA.t153 sky130_fd_pr__res_high_po_1p41 l=1.41
X139 VOUT+.t41 two_stage_opamp_dummy_magic_0.cap_res_X.t115 sky130_fd_pr__cap_mim_m3_1 l=2 w=2
X140 two_stage_opamp_dummy_magic_0.Vb2.t9 GNDA.t294 GNDA.t296 GNDA.t295 sky130_fd_pr__nfet_01v8 ad=0.2 pd=1.4 as=0.4 ps=2.8 w=1 l=0.15
X141 VOUT+.t42 two_stage_opamp_dummy_magic_0.cap_res_X.t114 sky130_fd_pr__cap_mim_m3_1 l=2 w=2
X142 VOUT-.t43 two_stage_opamp_dummy_magic_0.cap_res_Y.t113 sky130_fd_pr__cap_mim_m3_1 l=2 w=2
X143 two_stage_opamp_dummy_magic_0.V_source.t13 VIN+.t0 two_stage_opamp_dummy_magic_0.VD2.t7 GNDA.t108 sky130_fd_pr__nfet_01v8 ad=0.3 pd=1.9 as=0.3 ps=1.9 w=1.5 l=0.15
X144 VOUT+.t43 two_stage_opamp_dummy_magic_0.cap_res_X.t113 sky130_fd_pr__cap_mim_m3_1 l=2 w=2
X145 VDDA.t207 bgr_0.V_mir2.t17 bgr_0.1st_Vout_2.t10 VDDA.t206 sky130_fd_pr__pfet_01v8 ad=0.2 pd=1.4 as=0.2 ps=1.4 w=1 l=0.2
X146 VOUT-.t44 two_stage_opamp_dummy_magic_0.cap_res_Y.t112 sky130_fd_pr__cap_mim_m3_1 l=2 w=2
X147 VOUT-.t45 two_stage_opamp_dummy_magic_0.cap_res_Y.t111 sky130_fd_pr__cap_mim_m3_1 l=2 w=2
X148 two_stage_opamp_dummy_magic_0.X.t22 GNDA.t291 GNDA.t293 GNDA.t292 sky130_fd_pr__nfet_01v8 ad=0.3 pd=1.9 as=0.6 ps=3.8 w=1.5 l=0.15
X149 GNDA.t290 GNDA.t287 GNDA.t289 GNDA.t288 sky130_fd_pr__nfet_01v8 ad=1 pd=5.8 as=0 ps=0 w=2.5 l=0.15
X150 bgr_0.1st_Vout_1.t18 bgr_0.cap_res1.t14 sky130_fd_pr__cap_mim_m3_1 l=2 w=2
X151 GNDA.t93 two_stage_opamp_dummy_magic_0.V_tail_gate.t12 two_stage_opamp_dummy_magic_0.V_source.t11 GNDA.t92 sky130_fd_pr__nfet_01v8 ad=0.5 pd=2.9 as=0.5 ps=2.9 w=2.5 l=0.15
X152 a_13730_17020.t0 two_stage_opamp_dummy_magic_0.V_err_amp_ref.t0 GNDA.t90 sky130_fd_pr__res_xhigh_po_0p35 l=6.3
X153 GNDA.t202 two_stage_opamp_dummy_magic_0.Y.t31 two_stage_opamp_dummy_magic_0.V_CMFB_S3.t7 VDDA.t257 sky130_fd_pr__pfet_01v8 ad=0.4 pd=2.4 as=0.4 ps=2.4 w=2 l=0.15
X154 two_stage_opamp_dummy_magic_0.V_source.t37 VIN+.t1 two_stage_opamp_dummy_magic_0.VD2.t19 GNDA.t332 sky130_fd_pr__nfet_01v8 ad=0.3 pd=1.9 as=0.3 ps=1.9 w=1.5 l=0.15
X155 VDDA.t460 two_stage_opamp_dummy_magic_0.X.t31 two_stage_opamp_dummy_magic_0.V_CMFB_S2.t10 GNDA.t347 sky130_fd_pr__nfet_01v8 ad=0.8 pd=4.4 as=0.8 ps=4.4 w=4 l=0.15
X156 VOUT+.t44 two_stage_opamp_dummy_magic_0.cap_res_X.t112 sky130_fd_pr__cap_mim_m3_1 l=2 w=2
X157 bgr_0.V_CUR_REF_REG.t2 VDDA.t412 VDDA.t414 VDDA.t413 sky130_fd_pr__pfet_01v8 ad=0.2 pd=1.4 as=0.4 ps=2.8 w=1 l=0.15
X158 a_11220_17410.t1 a_12828_17530.t0 GNDA.t21 sky130_fd_pr__res_xhigh_po_0p35 l=6
X159 VOUT+.t45 two_stage_opamp_dummy_magic_0.cap_res_X.t111 sky130_fd_pr__cap_mim_m3_1 l=2 w=2
X160 VDDA.t259 two_stage_opamp_dummy_magic_0.Y.t32 VOUT-.t13 VDDA.t258 sky130_fd_pr__pfet_01v8 ad=1.2 pd=6.4 as=1.2 ps=6.4 w=6 l=0.15
X161 VOUT-.t46 two_stage_opamp_dummy_magic_0.cap_res_Y.t110 sky130_fd_pr__cap_mim_m3_1 l=2 w=2
X162 two_stage_opamp_dummy_magic_0.V_tail_gate.t6 bgr_0.PFET_GATE_10uA.t14 VDDA.t95 VDDA.t94 sky130_fd_pr__pfet_01v8 ad=0.2 pd=1.4 as=0.2 ps=1.4 w=1 l=0.15
X163 VOUT+.t46 two_stage_opamp_dummy_magic_0.cap_res_X.t110 sky130_fd_pr__cap_mim_m3_1 l=2 w=2
X164 VOUT+.t47 two_stage_opamp_dummy_magic_0.cap_res_X.t109 sky130_fd_pr__cap_mim_m3_1 l=2 w=2
X165 VDDA.t92 bgr_0.PFET_GATE_10uA.t15 bgr_0.V_CUR_REF_REG.t0 VDDA.t91 sky130_fd_pr__pfet_01v8 ad=0.2 pd=1.4 as=0.2 ps=1.4 w=1 l=0.15
X166 two_stage_opamp_dummy_magic_0.VD3.t2 two_stage_opamp_dummy_magic_0.Vb3.t11 VDDA.t69 VDDA.t68 sky130_fd_pr__pfet_01v8 ad=0.7 pd=3.9 as=0.7 ps=3.9 w=3.5 l=0.2
X167 VOUT+.t48 two_stage_opamp_dummy_magic_0.cap_res_X.t108 sky130_fd_pr__cap_mim_m3_1 l=2 w=2
X168 bgr_0.PFET_GATE_10uA.t4 bgr_0.cap_res2.t20 GNDA.t148 sky130_fd_pr__res_high_po_0p35 l=2.05
X169 two_stage_opamp_dummy_magic_0.VD4.t16 two_stage_opamp_dummy_magic_0.Vb2.t15 two_stage_opamp_dummy_magic_0.Y.t22 two_stage_opamp_dummy_magic_0.VD4.t15 sky130_fd_pr__pfet_01v8 ad=0.7 pd=3.9 as=0.7 ps=3.9 w=3.5 l=0.2
X170 bgr_0.V_p_1.t9 bgr_0.Vin-.t8 bgr_0.V_mir1.t14 GNDA.t207 sky130_fd_pr__nfet_01v8 ad=0.1 pd=0.9 as=0.1 ps=0.9 w=0.5 l=0.2
X171 VDDA.t57 bgr_0.V_mir1.t8 bgr_0.V_mir1.t9 VDDA.t56 sky130_fd_pr__pfet_01v8 ad=0.2 pd=1.4 as=0.2 ps=1.4 w=1 l=0.2
X172 two_stage_opamp_dummy_magic_0.V_source.t0 two_stage_opamp_dummy_magic_0.V_tail_gate.t13 GNDA.t3 GNDA.t2 sky130_fd_pr__nfet_01v8 ad=0.5 pd=2.9 as=0.5 ps=2.9 w=2.5 l=0.15
X173 VOUT+.t49 two_stage_opamp_dummy_magic_0.cap_res_X.t107 sky130_fd_pr__cap_mim_m3_1 l=2 w=2
X174 VOUT+.t50 two_stage_opamp_dummy_magic_0.cap_res_X.t106 sky130_fd_pr__cap_mim_m3_1 l=2 w=2
X175 bgr_0.1st_Vout_2.t15 bgr_0.cap_res2.t17 sky130_fd_pr__cap_mim_m3_1 l=2 w=2
X176 VOUT-.t47 two_stage_opamp_dummy_magic_0.cap_res_Y.t109 sky130_fd_pr__cap_mim_m3_1 l=2 w=2
X177 VOUT-.t48 two_stage_opamp_dummy_magic_0.cap_res_Y.t108 sky130_fd_pr__cap_mim_m3_1 l=2 w=2
X178 VDDA.t101 bgr_0.1st_Vout_1.t19 bgr_0.V_TOP.t5 VDDA.t100 sky130_fd_pr__pfet_01v8 ad=0.2 pd=1.4 as=0.2 ps=1.4 w=1 l=0.2
X179 VDDA.t303 bgr_0.V_TOP.t20 two_stage_opamp_dummy_magic_0.V_err_amp_ref.t4 VDDA.t302 sky130_fd_pr__pfet_01v8 ad=0.6 pd=3.4 as=0.6 ps=3.4 w=3 l=0.5
X180 VDDA.t246 two_stage_opamp_dummy_magic_0.Y.t33 two_stage_opamp_dummy_magic_0.V_CMFB_S4.t9 GNDA.t192 sky130_fd_pr__nfet_01v8 ad=0.8 pd=4.4 as=0.8 ps=4.4 w=4 l=0.15
X181 VOUT-.t49 two_stage_opamp_dummy_magic_0.cap_res_Y.t107 sky130_fd_pr__cap_mim_m3_1 l=2 w=2
X182 VOUT-.t50 two_stage_opamp_dummy_magic_0.cap_res_Y.t106 sky130_fd_pr__cap_mim_m3_1 l=2 w=2
X183 bgr_0.V_p_2.t2 bgr_0.V_CUR_REF_REG.t3 bgr_0.1st_Vout_2.t2 GNDA.t99 sky130_fd_pr__nfet_01v8 ad=0.1 pd=0.9 as=0.1 ps=0.9 w=0.5 l=0.2
X184 two_stage_opamp_dummy_magic_0.Y.t6 two_stage_opamp_dummy_magic_0.Vb1.t10 two_stage_opamp_dummy_magic_0.VD2.t2 GNDA.t56 sky130_fd_pr__nfet_01v8 ad=0.3 pd=1.9 as=0.3 ps=1.9 w=1.5 l=0.15
X185 VOUT-.t51 two_stage_opamp_dummy_magic_0.cap_res_Y.t105 sky130_fd_pr__cap_mim_m3_1 l=2 w=2
X186 VOUT+.t51 two_stage_opamp_dummy_magic_0.cap_res_X.t105 sky130_fd_pr__cap_mim_m3_1 l=2 w=2
X187 VOUT-.t12 two_stage_opamp_dummy_magic_0.Y.t34 VDDA.t248 VDDA.t247 sky130_fd_pr__pfet_01v8 ad=1.2 pd=6.4 as=1.2 ps=6.4 w=6 l=0.15
X188 VOUT+.t52 two_stage_opamp_dummy_magic_0.cap_res_X.t104 sky130_fd_pr__cap_mim_m3_1 l=2 w=2
X189 bgr_0.V_p_1.t8 bgr_0.Vin-.t9 bgr_0.V_mir1.t12 GNDA.t206 sky130_fd_pr__nfet_01v8 ad=0.1 pd=0.9 as=0.1 ps=0.9 w=0.5 l=0.2
X190 bgr_0.1st_Vout_2.t16 bgr_0.cap_res2.t16 sky130_fd_pr__cap_mim_m3_1 l=2 w=2
X191 bgr_0.V_TOP.t9 VDDA.t409 VDDA.t411 VDDA.t410 sky130_fd_pr__pfet_01v8 ad=0.2 pd=1.4 as=0.4 ps=2.8 w=1 l=0.15
X192 VOUT-.t52 two_stage_opamp_dummy_magic_0.cap_res_Y.t104 sky130_fd_pr__cap_mim_m3_1 l=2 w=2
X193 bgr_0.Vin-.t7 bgr_0.START_UP.t6 bgr_0.V_TOP.t12 VDDA.t430 sky130_fd_pr__pfet_01v8 ad=0.2 pd=1.4 as=0.2 ps=1.4 w=1 l=0.15
X194 VDDA.t408 VDDA.t406 two_stage_opamp_dummy_magic_0.V_err_p.t21 VDDA.t407 sky130_fd_pr__pfet_01v8 ad=0.2 pd=1.8 as=0.1 ps=0.9 w=0.5 l=0.15
X195 VOUT-.t53 two_stage_opamp_dummy_magic_0.cap_res_Y.t103 sky130_fd_pr__cap_mim_m3_1 l=2 w=2
X196 VOUT+.t53 two_stage_opamp_dummy_magic_0.cap_res_X.t103 sky130_fd_pr__cap_mim_m3_1 l=2 w=2
X197 bgr_0.1st_Vout_1.t20 bgr_0.cap_res1.t13 sky130_fd_pr__cap_mim_m3_1 l=2 w=2
X198 two_stage_opamp_dummy_magic_0.err_amp_out.t3 two_stage_opamp_dummy_magic_0.V_err_amp_ref.t9 two_stage_opamp_dummy_magic_0.V_err_p.t19 VDDA.t175 sky130_fd_pr__pfet_01v8 ad=0.1 pd=0.9 as=0.1 ps=0.9 w=0.5 l=0.15
X199 bgr_0.V_TOP.t21 VDDA.t293 sky130_fd_pr__cap_mim_m3_1 l=2 w=2
X200 VOUT-.t54 two_stage_opamp_dummy_magic_0.cap_res_Y.t102 sky130_fd_pr__cap_mim_m3_1 l=2 w=2
X201 VOUT-.t55 two_stage_opamp_dummy_magic_0.cap_res_Y.t101 sky130_fd_pr__cap_mim_m3_1 l=2 w=2
X202 two_stage_opamp_dummy_magic_0.V_b_2nd_stage.t1 a_14240_2076.t1 GNDA.t179 sky130_fd_pr__res_xhigh_po_0p35 l=2.63
X203 VDDA.t21 two_stage_opamp_dummy_magic_0.Vb3.t12 two_stage_opamp_dummy_magic_0.VD3.t1 VDDA.t20 sky130_fd_pr__pfet_01v8 ad=0.7 pd=3.9 as=0.7 ps=3.9 w=3.5 l=0.2
X204 GNDA.t96 two_stage_opamp_dummy_magic_0.X.t32 two_stage_opamp_dummy_magic_0.V_CMFB_S1.t12 VDDA.t93 sky130_fd_pr__pfet_01v8 ad=0.4 pd=2.4 as=0.4 ps=2.4 w=2 l=0.15
X205 VOUT-.t56 two_stage_opamp_dummy_magic_0.cap_res_Y.t100 sky130_fd_pr__cap_mim_m3_1 l=2 w=2
X206 two_stage_opamp_dummy_magic_0.Vb2_Vb3.t6 two_stage_opamp_dummy_magic_0.Vb2_Vb3.t4 two_stage_opamp_dummy_magic_0.Vb3.t0 two_stage_opamp_dummy_magic_0.Vb2_Vb3.t5 sky130_fd_pr__pfet_01v8 ad=1.44 pd=8 as=0.72 ps=4 w=3.6 l=0.2
X207 a_13730_17020.t1 GNDA.t334 GNDA.t90 sky130_fd_pr__res_xhigh_po_0p35 l=6.3
X208 bgr_0.1st_Vout_1.t21 bgr_0.cap_res1.t12 sky130_fd_pr__cap_mim_m3_1 l=2 w=2
X209 bgr_0.V_TOP.t22 VDDA.t292 sky130_fd_pr__cap_mim_m3_1 l=2 w=2
X210 two_stage_opamp_dummy_magic_0.VD4.t36 two_stage_opamp_dummy_magic_0.VD4.t34 two_stage_opamp_dummy_magic_0.Y.t5 two_stage_opamp_dummy_magic_0.VD4.t35 sky130_fd_pr__pfet_01v8 ad=1.4 pd=7.8 as=0.7 ps=3.9 w=3.5 l=0.2
X211 two_stage_opamp_dummy_magic_0.V_err_amp_ref.t6 VDDA.t387 VDDA.t389 VDDA.t388 sky130_fd_pr__pfet_01v8 ad=0.6 pd=3.4 as=1.2 ps=6.8 w=3 l=0.5
X212 a_11220_17290.t1 a_12828_17650.t1 GNDA.t21 sky130_fd_pr__res_xhigh_po_0p35 l=6
X213 VDDA.t173 two_stage_opamp_dummy_magic_0.Vb3.t13 two_stage_opamp_dummy_magic_0.VD4.t24 VDDA.t172 sky130_fd_pr__pfet_01v8 ad=0.7 pd=3.9 as=0.7 ps=3.9 w=3.5 l=0.2
X214 two_stage_opamp_dummy_magic_0.X.t16 two_stage_opamp_dummy_magic_0.Vb1.t11 two_stage_opamp_dummy_magic_0.VD1.t8 GNDA.t98 sky130_fd_pr__nfet_01v8 ad=0.3 pd=1.9 as=0.3 ps=1.9 w=1.5 l=0.15
X215 VOUT+.t54 two_stage_opamp_dummy_magic_0.cap_res_X.t102 sky130_fd_pr__cap_mim_m3_1 l=2 w=2
X216 VOUT+.t55 two_stage_opamp_dummy_magic_0.cap_res_X.t101 sky130_fd_pr__cap_mim_m3_1 l=2 w=2
X217 VOUT+.t56 two_stage_opamp_dummy_magic_0.cap_res_X.t100 sky130_fd_pr__cap_mim_m3_1 l=2 w=2
X218 VOUT-.t57 two_stage_opamp_dummy_magic_0.cap_res_Y.t99 sky130_fd_pr__cap_mim_m3_1 l=2 w=2
X219 GNDA.t14 two_stage_opamp_dummy_magic_0.V_tail_gate.t14 two_stage_opamp_dummy_magic_0.V_source.t4 GNDA.t13 sky130_fd_pr__nfet_01v8 ad=0.5 pd=2.9 as=0.5 ps=2.9 w=2.5 l=0.15
X220 bgr_0.V_p_2.t9 bgr_0.V_CUR_REF_REG.t4 bgr_0.1st_Vout_2.t4 GNDA.t159 sky130_fd_pr__nfet_01v8 ad=0.1 pd=0.9 as=0.2 ps=1.8 w=0.5 l=0.2
X221 two_stage_opamp_dummy_magic_0.V_CMFB_S1.t3 bgr_0.PFET_GATE_10uA.t16 VDDA.t143 VDDA.t142 sky130_fd_pr__pfet_01v8 ad=0.2 pd=1.4 as=0.2 ps=1.4 w=1 l=0.15
X222 VDDA.t185 two_stage_opamp_dummy_magic_0.X.t33 two_stage_opamp_dummy_magic_0.V_CMFB_S2.t9 GNDA.t151 sky130_fd_pr__nfet_01v8 ad=0.8 pd=4.4 as=0.8 ps=4.4 w=4 l=0.15
X223 VOUT+.t57 two_stage_opamp_dummy_magic_0.cap_res_X.t99 sky130_fd_pr__cap_mim_m3_1 l=2 w=2
X224 VDDA.t114 bgr_0.PFET_GATE_10uA.t17 two_stage_opamp_dummy_magic_0.V_CMFB_S1.t2 VDDA.t113 sky130_fd_pr__pfet_01v8 ad=0.2 pd=1.4 as=0.2 ps=1.4 w=1 l=0.15
X225 two_stage_opamp_dummy_magic_0.V_source.t38 VIN+.t2 two_stage_opamp_dummy_magic_0.VD2.t20 GNDA.t335 sky130_fd_pr__nfet_01v8 ad=0.3 pd=1.9 as=0.3 ps=1.9 w=1.5 l=0.15
X226 VOUT-.t58 two_stage_opamp_dummy_magic_0.cap_res_Y.t98 sky130_fd_pr__cap_mim_m3_1 l=2 w=2
X227 VDDA.t405 VDDA.t403 VDDA.t405 VDDA.t404 sky130_fd_pr__pfet_01v8 ad=0.71 pd=3.95 as=0 ps=0 w=3.55 l=0.2
X228 GNDA.t191 two_stage_opamp_dummy_magic_0.Y.t35 two_stage_opamp_dummy_magic_0.V_CMFB_S3.t6 VDDA.t243 sky130_fd_pr__pfet_01v8 ad=0.4 pd=2.4 as=0.4 ps=2.4 w=2 l=0.15
X229 VDDA.t448 two_stage_opamp_dummy_magic_0.X.t34 two_stage_opamp_dummy_magic_0.V_CMFB_S2.t8 GNDA.t330 sky130_fd_pr__nfet_01v8 ad=0.8 pd=4.4 as=0.8 ps=4.4 w=4 l=0.15
X230 a_11220_17290.t0 GNDA.t321 GNDA.t21 sky130_fd_pr__res_xhigh_po_0p35 l=6
X231 two_stage_opamp_dummy_magic_0.V_source.t22 VIN-.t2 two_stage_opamp_dummy_magic_0.VD1.t14 GNDA.t161 sky130_fd_pr__nfet_01v8 ad=0.3 pd=1.9 as=0.3 ps=1.9 w=1.5 l=0.15
X232 two_stage_opamp_dummy_magic_0.V_tail_gate.t11 GNDA.t284 GNDA.t286 GNDA.t285 sky130_fd_pr__nfet_01v8 ad=0.3 pd=1.9 as=0.6 ps=3.8 w=1.5 l=0.15
X233 bgr_0.1st_Vout_1.t22 bgr_0.cap_res1.t11 sky130_fd_pr__cap_mim_m3_1 l=2 w=2
X234 VOUT-.t59 two_stage_opamp_dummy_magic_0.cap_res_Y.t97 sky130_fd_pr__cap_mim_m3_1 l=2 w=2
X235 two_stage_opamp_dummy_magic_0.V_err_mir_p.t8 two_stage_opamp_dummy_magic_0.V_err_amp_ref.t10 two_stage_opamp_dummy_magic_0.V_err_gate.t10 VDDA.t253 sky130_fd_pr__pfet_01v8 ad=0.1 pd=0.9 as=0.1 ps=0.9 w=0.5 l=0.15
X236 VOUT-.t60 two_stage_opamp_dummy_magic_0.cap_res_Y.t96 sky130_fd_pr__cap_mim_m3_1 l=2 w=2