* PEX produced on Mon Aug 25 12:01:18 AM CEST 2025 using /foss/tools/osic-multitool/iic-pex.sh with m=3 and s=1
* NGSPICE file created from bgr_opamp_dummy_magic.ext - technology: sky130A

.subckt bgr_opamp_dummy_magic VDDA GNDA VOUT+ VOUT- VIN+ VIN-
X0 VDDA.t227 bgr_0.1st_Vout_2.t7 bgr_0.PFET_GATE_10uA.t9 VDDA.t226 sky130_fd_pr__pfet_01v8 ad=0.2 pd=1.4 as=0.2 ps=1.4 w=1 l=0.2
X1 two_stage_opamp_dummy_magic_0.VD4.t31 two_stage_opamp_dummy_magic_0.Vb3.t8 VDDA.t95 VDDA.t94 sky130_fd_pr__pfet_01v8 ad=0.7 pd=3.9 as=0.7 ps=3.9 w=3.5 l=0.2
X2 two_stage_opamp_dummy_magic_0.V_CMFB_S1.t16 two_stage_opamp_dummy_magic_0.X.t25 GNDA.t171 VDDA.t120 sky130_fd_pr__pfet_01v8 ad=0.4 pd=2.4 as=0.4 ps=2.4 w=2 l=0.15
X3 VDDA.t189 two_stage_opamp_dummy_magic_0.Y.t25 two_stage_opamp_dummy_magic_0.V_CMFB_S4.t9 GNDA.t117 sky130_fd_pr__nfet_01v8 ad=0.6 pd=3.4 as=0.6 ps=3.4 w=3 l=0.15
X4 GNDA.t71 two_stage_opamp_dummy_magic_0.V_tail_gate.t12 two_stage_opamp_dummy_magic_0.V_source.t40 GNDA.t4 sky130_fd_pr__nfet_01v8 ad=0.5 pd=2.9 as=0.5 ps=2.9 w=2.5 l=0.15
X5 GNDA.t269 GNDA.t267 two_stage_opamp_dummy_magic_0.Vb2.t9 GNDA.t268 sky130_fd_pr__nfet_01v8 ad=0.4 pd=2.8 as=0.2 ps=1.4 w=1 l=0.15
X6 two_stage_opamp_dummy_magic_0.V_CMFB_S2.t12 two_stage_opamp_dummy_magic_0.X.t26 VDDA.t85 GNDA.t170 sky130_fd_pr__nfet_01v8 ad=0.6 pd=3.4 as=0.6 ps=3.4 w=3 l=0.15
X7 GNDA.t59 two_stage_opamp_dummy_magic_0.V_tail_gate.t13 two_stage_opamp_dummy_magic_0.V_source.t39 GNDA.t4 sky130_fd_pr__nfet_01v8 ad=0.5 pd=2.9 as=0.5 ps=2.9 w=2.5 l=0.15
X8 VOUT-.t19 two_stage_opamp_dummy_magic_0.cap_res_X.t142 sky130_fd_pr__cap_mim_m3_1 l=2 w=2
X9 VOUT-.t20 two_stage_opamp_dummy_magic_0.cap_res_X.t141 sky130_fd_pr__cap_mim_m3_1 l=2 w=2
X10 two_stage_opamp_dummy_magic_0.cap_res_Y.t4 two_stage_opamp_dummy_magic_0.Y.t0 GNDA.t19 sky130_fd_pr__res_high_po_1p41 l=1.41
X11 VOUT+.t19 two_stage_opamp_dummy_magic_0.cap_res_Y.t71 sky130_fd_pr__cap_mim_m3_1 l=2 w=2
X12 two_stage_opamp_dummy_magic_0.VD4.t37 two_stage_opamp_dummy_magic_0.VD4.t35 two_stage_opamp_dummy_magic_0.Y.t20 two_stage_opamp_dummy_magic_0.VD4.t36 sky130_fd_pr__pfet_01v8 ad=1.4 pd=7.8 as=0.7 ps=3.9 w=3.5 l=0.2
X13 VDDA.t382 VDDA.t380 VOUT-.t6 VDDA.t381 sky130_fd_pr__pfet_01v8 ad=2.4 pd=12.8 as=1.2 ps=6.4 w=6 l=0.15
X14 VDDA.t153 bgr_0.V_TOP.t14 two_stage_opamp_dummy_magic_0.V_err_amp_ref.t3 VDDA.t152 sky130_fd_pr__pfet_01v8 ad=0.6 pd=3.4 as=0.6 ps=3.4 w=3 l=0.5
X15 two_stage_opamp_dummy_magic_0.VD2.t13 two_stage_opamp_dummy_magic_0.Vb1.t12 two_stage_opamp_dummy_magic_0.Y.t7 GNDA.t3 sky130_fd_pr__nfet_01v8 ad=0.3 pd=1.9 as=0.3 ps=1.9 w=1.5 l=0.15
X16 VOUT-.t21 two_stage_opamp_dummy_magic_0.cap_res_X.t140 sky130_fd_pr__cap_mim_m3_1 l=2 w=2
X17 VOUT+.t20 two_stage_opamp_dummy_magic_0.cap_res_Y.t96 sky130_fd_pr__cap_mim_m3_1 l=2 w=2
X18 bgr_0.1st_Vout_1.t7 bgr_0.cap_res1.t20 sky130_fd_pr__cap_mim_m3_1 l=2 w=2
X19 two_stage_opamp_dummy_magic_0.VD3.t19 two_stage_opamp_dummy_magic_0.Vb2.t11 two_stage_opamp_dummy_magic_0.X.t0 two_stage_opamp_dummy_magic_0.VD3.t18 sky130_fd_pr__pfet_01v8 ad=0.7 pd=3.9 as=0.7 ps=3.9 w=3.5 l=0.2
X20 two_stage_opamp_dummy_magic_0.Vb2.t0 bgr_0.NFET_GATE_10uA.t5 GNDA.t8 GNDA.t7 sky130_fd_pr__nfet_01v8 ad=0.2 pd=1.4 as=0.2 ps=1.4 w=1 l=0.15
X21 bgr_0.V_TOP.t15 VDDA.t154 sky130_fd_pr__cap_mim_m3_1 l=2 w=2
X22 GNDA.t139 bgr_0.NFET_GATE_10uA.t6 two_stage_opamp_dummy_magic_0.Vb2.t7 GNDA.t138 sky130_fd_pr__nfet_01v8 ad=0.2 pd=1.4 as=0.2 ps=1.4 w=1 l=0.15
X23 two_stage_opamp_dummy_magic_0.VD4.t30 two_stage_opamp_dummy_magic_0.Vb3.t9 VDDA.t87 VDDA.t86 sky130_fd_pr__pfet_01v8 ad=0.7 pd=3.9 as=0.7 ps=3.9 w=3.5 l=0.2
X24 VDDA.t379 VDDA.t376 VDDA.t378 VDDA.t377 sky130_fd_pr__pfet_01v8 ad=0.72 pd=4.4 as=0 ps=0 w=1.8 l=0.2
X25 bgr_0.START_UP_NFET1.t0 bgr_0.START_UP_NFET1 GNDA.t18 GNDA.t17 sky130_fd_pr__nfet_01v8 ad=0.2 pd=1.4 as=0.4 ps=2.8 w=1 l=10
X26 bgr_0.1st_Vout_1.t6 bgr_0.V_mir1.t13 VDDA.t409 VDDA.t408 sky130_fd_pr__pfet_01v8 ad=0.2 pd=1.4 as=0.2 ps=1.4 w=1 l=0.2
X27 two_stage_opamp_dummy_magic_0.VD3.t21 VDDA.t373 VDDA.t375 VDDA.t374 sky130_fd_pr__pfet_01v8 ad=0.7 pd=3.9 as=1.4 ps=7.8 w=3.5 l=0.2
X28 two_stage_opamp_dummy_magic_0.V_CMFB_S3.t9 two_stage_opamp_dummy_magic_0.Y.t26 GNDA.t121 VDDA.t190 sky130_fd_pr__pfet_01v8 ad=0.4 pd=2.4 as=0.4 ps=2.4 w=2 l=0.15
X29 VOUT+.t21 two_stage_opamp_dummy_magic_0.cap_res_Y.t97 sky130_fd_pr__cap_mim_m3_1 l=2 w=2
X30 a_3230_6968.t1 two_stage_opamp_dummy_magic_0.V_CMFB_S3.t10 GNDA.t132 sky130_fd_pr__res_xhigh_po_0p35 l=1.75
X31 VOUT-.t22 two_stage_opamp_dummy_magic_0.cap_res_X.t139 sky130_fd_pr__cap_mim_m3_1 l=2 w=2
X32 two_stage_opamp_dummy_magic_0.VD2.t16 VIN+.t0 two_stage_opamp_dummy_magic_0.V_source.t11 GNDA.t44 sky130_fd_pr__nfet_01v8 ad=0.3 pd=1.9 as=0.3 ps=1.9 w=1.5 l=0.15
X33 VOUT-.t23 two_stage_opamp_dummy_magic_0.cap_res_X.t138 sky130_fd_pr__cap_mim_m3_1 l=2 w=2
X34 bgr_0.V_TOP.t16 VDDA.t137 sky130_fd_pr__cap_mim_m3_1 l=2 w=2
X35 two_stage_opamp_dummy_magic_0.V_source.t38 two_stage_opamp_dummy_magic_0.V_tail_gate.t14 GNDA.t61 GNDA.t60 sky130_fd_pr__nfet_01v8 ad=0.5 pd=2.9 as=0.5 ps=2.9 w=2.5 l=0.15
X36 VOUT+.t22 two_stage_opamp_dummy_magic_0.cap_res_Y.t17 sky130_fd_pr__cap_mim_m3_1 l=2 w=2
X37 VDDA.t192 two_stage_opamp_dummy_magic_0.Y.t27 VOUT+.t10 VDDA.t191 sky130_fd_pr__pfet_01v8 ad=1.2 pd=6.4 as=1.2 ps=6.4 w=6 l=0.15
X38 VOUT-.t24 two_stage_opamp_dummy_magic_0.cap_res_X.t137 sky130_fd_pr__cap_mim_m3_1 l=2 w=2
X39 GNDA.t266 GNDA.t265 two_stage_opamp_dummy_magic_0.Vb1.t11 GNDA.t46 sky130_fd_pr__nfet_01v8 ad=0.6 pd=3.8 as=0.3 ps=1.9 w=1.5 l=0.15
X40 two_stage_opamp_dummy_magic_0.VD3.t17 two_stage_opamp_dummy_magic_0.Vb2.t12 two_stage_opamp_dummy_magic_0.X.t6 two_stage_opamp_dummy_magic_0.VD3.t16 sky130_fd_pr__pfet_01v8 ad=0.7 pd=3.9 as=0.7 ps=3.9 w=3.5 l=0.2
X41 VOUT+.t23 two_stage_opamp_dummy_magic_0.cap_res_Y.t18 sky130_fd_pr__cap_mim_m3_1 l=2 w=2
X42 VOUT+.t24 two_stage_opamp_dummy_magic_0.cap_res_Y.t2 sky130_fd_pr__cap_mim_m3_1 l=2 w=2
X43 a_6350_30238.t0 bgr_0.Vin+.t5 GNDA.t79 sky130_fd_pr__res_xhigh_po_0p35 l=6
X44 bgr_0.V_TOP.t17 VDDA.t138 sky130_fd_pr__cap_mim_m3_1 l=2 w=2
X45 two_stage_opamp_dummy_magic_0.V_err_gate.t2 bgr_0.NFET_GATE_10uA.t7 GNDA.t291 GNDA.t290 sky130_fd_pr__nfet_01v8 ad=0.2 pd=1.4 as=0.2 ps=1.4 w=1 l=0.15
X46 VOUT-.t25 two_stage_opamp_dummy_magic_0.cap_res_X.t136 sky130_fd_pr__cap_mim_m3_1 l=2 w=2
X47 VDDA.t195 a_6540_22450.t11 a_6540_22450.t12 VDDA.t194 sky130_fd_pr__pfet_01v8 ad=0.2 pd=1.4 as=0.2 ps=1.4 w=1 l=0.2
X48 two_stage_opamp_dummy_magic_0.VD3.t31 two_stage_opamp_dummy_magic_0.Vb3.t10 VDDA.t70 VDDA.t69 sky130_fd_pr__pfet_01v8 ad=0.7 pd=3.9 as=0.7 ps=3.9 w=3.5 l=0.2
X49 VDDA.t14 bgr_0.V_mir1.t10 bgr_0.V_mir1.t11 VDDA.t13 sky130_fd_pr__pfet_01v8 ad=0.2 pd=1.4 as=0.2 ps=1.4 w=1 l=0.2
X50 VOUT-.t26 two_stage_opamp_dummy_magic_0.cap_res_X.t135 sky130_fd_pr__cap_mim_m3_1 l=2 w=2
X51 two_stage_opamp_dummy_magic_0.err_amp_out.t1 two_stage_opamp_dummy_magic_0.err_amp_mir.t5 GNDA.t110 GNDA.t75 sky130_fd_pr__nfet_01v8 ad=0.5 pd=2.9 as=0.5 ps=2.9 w=2.5 l=0.15
X52 GNDA.t264 GNDA.t262 VOUT-.t18 GNDA.t263 sky130_fd_pr__nfet_01v8 ad=2.8 pd=14.8 as=1.4 ps=7.4 w=7 l=0.6
X53 two_stage_opamp_dummy_magic_0.V_CMFB_S3.t14 bgr_0.PFET_GATE_10uA.t10 VDDA.t265 VDDA.t264 sky130_fd_pr__pfet_01v8 ad=0.2 pd=1.4 as=0.2 ps=1.4 w=1 l=0.15
X54 GNDA.t66 two_stage_opamp_dummy_magic_0.Y.t28 two_stage_opamp_dummy_magic_0.V_CMFB_S3.t8 VDDA.t108 sky130_fd_pr__pfet_01v8 ad=0.4 pd=2.4 as=0.4 ps=2.4 w=2 l=0.15
X55 VDDA.t263 bgr_0.PFET_GATE_10uA.t11 two_stage_opamp_dummy_magic_0.V_CMFB_S3.t13 VDDA.t262 sky130_fd_pr__pfet_01v8 ad=0.2 pd=1.4 as=0.2 ps=1.4 w=1 l=0.15
X56 two_stage_opamp_dummy_magic_0.VD4.t21 VDDA.t370 VDDA.t372 VDDA.t371 sky130_fd_pr__pfet_01v8 ad=0.7 pd=3.9 as=1.4 ps=7.8 w=3.5 l=0.2
X57 VOUT-.t27 two_stage_opamp_dummy_magic_0.cap_res_X.t134 sky130_fd_pr__cap_mim_m3_1 l=2 w=2
X58 bgr_0.V_TOP.t18 VDDA.t141 sky130_fd_pr__cap_mim_m3_1 l=2 w=2
X59 bgr_0.cap_res1.t0 bgr_0.V_TOP.t0 GNDA.t16 sky130_fd_pr__res_high_po_0p35 l=2.05
X60 two_stage_opamp_dummy_magic_0.V_CMFB_S1.t15 two_stage_opamp_dummy_magic_0.X.t27 GNDA.t169 VDDA.t40 sky130_fd_pr__pfet_01v8 ad=0.4 pd=2.4 as=0.4 ps=2.4 w=2 l=0.15
X61 VOUT+.t25 two_stage_opamp_dummy_magic_0.cap_res_Y.t3 sky130_fd_pr__cap_mim_m3_1 l=2 w=2
X62 two_stage_opamp_dummy_magic_0.V_source.t8 two_stage_opamp_dummy_magic_0.Vb1.t13 two_stage_opamp_dummy_magic_0.Vb1_2.t0 GNDA.t93 sky130_fd_pr__nfet_01v8 ad=0.6 pd=3.8 as=0.6 ps=3.8 w=1.5 l=3
X63 VOUT-.t28 two_stage_opamp_dummy_magic_0.cap_res_X.t133 sky130_fd_pr__cap_mim_m3_1 l=2 w=2
X64 two_stage_opamp_dummy_magic_0.VD1.t11 two_stage_opamp_dummy_magic_0.Vb1.t14 two_stage_opamp_dummy_magic_0.X.t18 GNDA.t125 sky130_fd_pr__nfet_01v8 ad=0.3 pd=1.9 as=0.3 ps=1.9 w=1.5 l=0.15
X65 VOUT+.t26 two_stage_opamp_dummy_magic_0.cap_res_Y.t124 sky130_fd_pr__cap_mim_m3_1 l=2 w=2
X66 GNDA.t5 two_stage_opamp_dummy_magic_0.V_tail_gate.t15 two_stage_opamp_dummy_magic_0.V_source.t37 GNDA.t4 sky130_fd_pr__nfet_01v8 ad=0.5 pd=2.9 as=0.5 ps=2.9 w=2.5 l=0.15
X67 VOUT-.t29 two_stage_opamp_dummy_magic_0.cap_res_X.t132 sky130_fd_pr__cap_mim_m3_1 l=2 w=2
X68 VOUT-.t30 two_stage_opamp_dummy_magic_0.cap_res_X.t131 sky130_fd_pr__cap_mim_m3_1 l=2 w=2
X69 VOUT+.t27 two_stage_opamp_dummy_magic_0.cap_res_Y.t125 sky130_fd_pr__cap_mim_m3_1 l=2 w=2
X70 VDDA.t136 two_stage_opamp_dummy_magic_0.X.t28 VOUT-.t16 VDDA.t135 sky130_fd_pr__pfet_01v8 ad=1.2 pd=6.4 as=1.2 ps=6.4 w=6 l=0.15
X71 bgr_0.V_TOP.t19 VDDA.t142 sky130_fd_pr__cap_mim_m3_1 l=2 w=2
X72 bgr_0.1st_Vout_2.t8 bgr_0.cap_res2.t20 sky130_fd_pr__cap_mim_m3_1 l=2 w=2
X73 VDDA.t42 two_stage_opamp_dummy_magic_0.X.t29 VOUT-.t15 VDDA.t41 sky130_fd_pr__pfet_01v8 ad=1.2 pd=6.4 as=1.2 ps=6.4 w=6 l=0.15
X74 two_stage_opamp_dummy_magic_0.VD2.t12 two_stage_opamp_dummy_magic_0.Vb1.t15 two_stage_opamp_dummy_magic_0.Y.t6 GNDA.t39 sky130_fd_pr__nfet_01v8 ad=0.3 pd=1.9 as=0.3 ps=1.9 w=1.5 l=0.15
X75 two_stage_opamp_dummy_magic_0.V_b_2nd_stage.t1 a_3830_3166.t1 GNDA.t281 sky130_fd_pr__res_xhigh_po_0p35 l=2.63
X76 GNDA.t176 GNDA.t251 bgr_0.sky130_fd_pr__rf_pnp_05v5_W3p40L3p40_25.Emitter.t8 sky130_fd_pr__pnp_05v5_W3p40L3p40
**devattr s=462400,2720
X77 two_stage_opamp_dummy_magic_0.Vb2_Vb3.t9 VDDA.t367 VDDA.t369 VDDA.t368 sky130_fd_pr__pfet_01v8 ad=0.7 pd=3.9 as=1.4 ps=7.8 w=3.5 l=0.2
X78 VOUT-.t31 two_stage_opamp_dummy_magic_0.cap_res_X.t130 sky130_fd_pr__cap_mim_m3_1 l=2 w=2
X79 two_stage_opamp_dummy_magic_0.VD1.t10 two_stage_opamp_dummy_magic_0.Vb1.t16 two_stage_opamp_dummy_magic_0.X.t12 GNDA.t92 sky130_fd_pr__nfet_01v8 ad=0.3 pd=1.9 as=0.3 ps=1.9 w=1.5 l=0.15
X80 VOUT-.t32 two_stage_opamp_dummy_magic_0.cap_res_X.t129 sky130_fd_pr__cap_mim_m3_1 l=2 w=2
X81 VDDA.t225 bgr_0.1st_Vout_2.t9 bgr_0.PFET_GATE_10uA.t8 VDDA.t224 sky130_fd_pr__pfet_01v8 ad=0.2 pd=1.4 as=0.2 ps=1.4 w=1 l=0.2
X82 two_stage_opamp_dummy_magic_0.VD1.t1 VIN-.t0 two_stage_opamp_dummy_magic_0.V_source.t5 GNDA.t37 sky130_fd_pr__nfet_01v8 ad=0.3 pd=1.9 as=0.3 ps=1.9 w=1.5 l=0.15
X83 VOUT-.t33 two_stage_opamp_dummy_magic_0.cap_res_X.t128 sky130_fd_pr__cap_mim_m3_1 l=2 w=2
X84 VOUT+.t28 two_stage_opamp_dummy_magic_0.cap_res_Y.t140 sky130_fd_pr__cap_mim_m3_1 l=2 w=2
X85 bgr_0.1st_Vout_2.t10 bgr_0.cap_res2.t19 sky130_fd_pr__cap_mim_m3_1 l=2 w=2
X86 two_stage_opamp_dummy_magic_0.V_tail_gate.t9 bgr_0.PFET_GATE_10uA.t12 VDDA.t261 VDDA.t260 sky130_fd_pr__pfet_01v8 ad=0.2 pd=1.4 as=0.2 ps=1.4 w=1 l=0.15
X87 VOUT-.t34 two_stage_opamp_dummy_magic_0.cap_res_X.t127 sky130_fd_pr__cap_mim_m3_1 l=2 w=2
X88 VOUT-.t35 two_stage_opamp_dummy_magic_0.cap_res_X.t126 sky130_fd_pr__cap_mim_m3_1 l=2 w=2
X89 VOUT+.t29 two_stage_opamp_dummy_magic_0.cap_res_Y.t141 sky130_fd_pr__cap_mim_m3_1 l=2 w=2
X90 two_stage_opamp_dummy_magic_0.VD3.t15 two_stage_opamp_dummy_magic_0.Vb2.t13 two_stage_opamp_dummy_magic_0.X.t7 two_stage_opamp_dummy_magic_0.VD3.t14 sky130_fd_pr__pfet_01v8 ad=0.7 pd=3.9 as=0.7 ps=3.9 w=3.5 l=0.2
X91 bgr_0.sky130_fd_pr__rf_pnp_05v5_W3p40L3p40_25.Emitter.t0 bgr_0.Vin+.t0 GNDA.t38 sky130_fd_pr__res_xhigh_po_0p35 l=2.3
X92 two_stage_opamp_dummy_magic_0.VD2.t21 GNDA.t260 GNDA.t261 GNDA.t205 sky130_fd_pr__nfet_01v8 ad=0.3 pd=1.9 as=0.6 ps=3.8 w=1.5 l=0.15
X93 VOUT-.t36 two_stage_opamp_dummy_magic_0.cap_res_X.t125 sky130_fd_pr__cap_mim_m3_1 l=2 w=2
X94 bgr_0.1st_Vout_1.t8 bgr_0.cap_res1.t19 sky130_fd_pr__cap_mim_m3_1 l=2 w=2
X95 GNDA.t259 GNDA.t258 two_stage_opamp_dummy_magic_0.V_tail_gate.t11 GNDA.t0 sky130_fd_pr__nfet_01v8 ad=0.6 pd=3.8 as=0.3 ps=1.9 w=1.5 l=0.15
X96 two_stage_opamp_dummy_magic_0.VD1.t0 VIN-.t1 two_stage_opamp_dummy_magic_0.V_source.t0 GNDA.t0 sky130_fd_pr__nfet_01v8 ad=0.3 pd=1.9 as=0.3 ps=1.9 w=1.5 l=0.15
X97 bgr_0.1st_Vout_2.t11 bgr_0.cap_res2.t18 sky130_fd_pr__cap_mim_m3_1 l=2 w=2
X98 two_stage_opamp_dummy_magic_0.VD4.t9 two_stage_opamp_dummy_magic_0.Vb2.t14 two_stage_opamp_dummy_magic_0.Y.t10 two_stage_opamp_dummy_magic_0.VD4.t8 sky130_fd_pr__pfet_01v8 ad=0.7 pd=3.9 as=0.7 ps=3.9 w=3.5 l=0.2
X99 VDDA.t110 two_stage_opamp_dummy_magic_0.Y.t29 VOUT+.t9 VDDA.t109 sky130_fd_pr__pfet_01v8 ad=1.2 pd=6.4 as=1.2 ps=6.4 w=6 l=0.15
X100 VOUT-.t37 two_stage_opamp_dummy_magic_0.cap_res_X.t124 sky130_fd_pr__cap_mim_m3_1 l=2 w=2
X101 two_stage_opamp_dummy_magic_0.Vb1_2.t4 two_stage_opamp_dummy_magic_0.Vb1.t0 two_stage_opamp_dummy_magic_0.Vb1.t1 GNDA.t46 sky130_fd_pr__nfet_01v8 ad=0.3 pd=1.9 as=0.3 ps=1.9 w=1.5 l=0.15
X102 VDDA.t104 two_stage_opamp_dummy_magic_0.Y.t30 VOUT+.t8 VDDA.t103 sky130_fd_pr__pfet_01v8 ad=1.2 pd=6.4 as=1.2 ps=6.4 w=6 l=0.15
X103 bgr_0.V_TOP.t20 VDDA.t148 sky130_fd_pr__cap_mim_m3_1 l=2 w=2
X104 VDDA.t259 bgr_0.PFET_GATE_10uA.t13 two_stage_opamp_dummy_magic_0.V_CMFB_S1.t4 VDDA.t258 sky130_fd_pr__pfet_01v8 ad=0.2 pd=1.4 as=0.2 ps=1.4 w=1 l=0.15
X105 VOUT+.t30 two_stage_opamp_dummy_magic_0.cap_res_Y.t69 sky130_fd_pr__cap_mim_m3_1 l=2 w=2
X106 two_stage_opamp_dummy_magic_0.V_CMFB_S1.t6 VDDA.t364 VDDA.t366 VDDA.t365 sky130_fd_pr__pfet_01v8 ad=0.2 pd=1.4 as=0.4 ps=2.8 w=1 l=0.15
X107 VOUT+.t31 two_stage_opamp_dummy_magic_0.cap_res_Y.t70 sky130_fd_pr__cap_mim_m3_1 l=2 w=2
X108 VDDA.t188 a_6540_22450.t13 bgr_0.1st_Vout_2.t5 VDDA.t187 sky130_fd_pr__pfet_01v8 ad=0.2 pd=1.4 as=0.2 ps=1.4 w=1 l=0.2
X109 VDDA.t150 bgr_0.V_TOP.t21 two_stage_opamp_dummy_magic_0.V_err_amp_ref.t2 VDDA.t149 sky130_fd_pr__pfet_01v8 ad=0.6 pd=3.4 as=0.6 ps=3.4 w=3 l=0.5
X110 VOUT+.t32 two_stage_opamp_dummy_magic_0.cap_res_Y.t122 sky130_fd_pr__cap_mim_m3_1 l=2 w=2
X111 VOUT-.t38 two_stage_opamp_dummy_magic_0.cap_res_X.t123 sky130_fd_pr__cap_mim_m3_1 l=2 w=2
X112 VOUT-.t39 two_stage_opamp_dummy_magic_0.cap_res_X.t122 sky130_fd_pr__cap_mim_m3_1 l=2 w=2
X113 VOUT-.t40 two_stage_opamp_dummy_magic_0.cap_res_X.t121 sky130_fd_pr__cap_mim_m3_1 l=2 w=2
X114 VOUT-.t41 two_stage_opamp_dummy_magic_0.cap_res_X.t120 sky130_fd_pr__cap_mim_m3_1 l=2 w=2
X115 VDDA.t105 two_stage_opamp_dummy_magic_0.Y.t31 two_stage_opamp_dummy_magic_0.V_CMFB_S4.t8 GNDA.t65 sky130_fd_pr__nfet_01v8 ad=0.6 pd=3.4 as=0.6 ps=3.4 w=3 l=0.15
X116 VOUT-.t42 two_stage_opamp_dummy_magic_0.cap_res_X.t119 sky130_fd_pr__cap_mim_m3_1 l=2 w=2
X117 VOUT-.t17 GNDA.t255 GNDA.t257 GNDA.t256 sky130_fd_pr__nfet_01v8 ad=1.4 pd=7.4 as=2.8 ps=14.8 w=7 l=0.6
X118 two_stage_opamp_dummy_magic_0.VD4.t11 two_stage_opamp_dummy_magic_0.Vb2.t15 two_stage_opamp_dummy_magic_0.Y.t11 two_stage_opamp_dummy_magic_0.VD4.t10 sky130_fd_pr__pfet_01v8 ad=0.7 pd=3.9 as=0.7 ps=3.9 w=3.5 l=0.2
X119 VOUT+.t33 two_stage_opamp_dummy_magic_0.cap_res_Y.t123 sky130_fd_pr__cap_mim_m3_1 l=2 w=2
X120 VOUT+.t34 two_stage_opamp_dummy_magic_0.cap_res_Y.t138 sky130_fd_pr__cap_mim_m3_1 l=2 w=2
X121 two_stage_opamp_dummy_magic_0.VD1.t9 two_stage_opamp_dummy_magic_0.Vb1.t17 two_stage_opamp_dummy_magic_0.X.t17 GNDA.t124 sky130_fd_pr__nfet_01v8 ad=0.3 pd=1.9 as=0.3 ps=1.9 w=1.5 l=0.15
X122 bgr_0.1st_Vout_2.t12 bgr_0.cap_res2.t17 sky130_fd_pr__cap_mim_m3_1 l=2 w=2
X123 VOUT+.t35 two_stage_opamp_dummy_magic_0.cap_res_Y.t139 sky130_fd_pr__cap_mim_m3_1 l=2 w=2
X124 GNDA.t6 two_stage_opamp_dummy_magic_0.V_tail_gate.t16 two_stage_opamp_dummy_magic_0.V_source.t36 GNDA.t4 sky130_fd_pr__nfet_01v8 ad=0.5 pd=2.9 as=0.5 ps=2.9 w=2.5 l=0.15
X125 bgr_0.V_TOP.t22 VDDA.t391 sky130_fd_pr__cap_mim_m3_1 l=2 w=2
X126 VOUT-.t43 two_stage_opamp_dummy_magic_0.cap_res_X.t118 sky130_fd_pr__cap_mim_m3_1 l=2 w=2
X127 VOUT+.t36 two_stage_opamp_dummy_magic_0.cap_res_Y.t67 sky130_fd_pr__cap_mim_m3_1 l=2 w=2
X128 VDDA.t397 two_stage_opamp_dummy_magic_0.X.t30 VOUT-.t14 VDDA.t396 sky130_fd_pr__pfet_01v8 ad=1.2 pd=6.4 as=1.2 ps=6.4 w=6 l=0.15
X129 two_stage_opamp_dummy_magic_0.V_err_amp_ref.t5 VDDA.t361 VDDA.t363 VDDA.t362 sky130_fd_pr__pfet_01v8 ad=0.6 pd=3.4 as=1.2 ps=6.8 w=3 l=0.5
X130 VOUT-.t44 two_stage_opamp_dummy_magic_0.cap_res_X.t117 sky130_fd_pr__cap_mim_m3_1 l=2 w=2
X131 VOUT+.t37 two_stage_opamp_dummy_magic_0.cap_res_Y.t68 sky130_fd_pr__cap_mim_m3_1 l=2 w=2
X132 two_stage_opamp_dummy_magic_0.VD2.t11 two_stage_opamp_dummy_magic_0.Vb1.t18 two_stage_opamp_dummy_magic_0.Y.t14 GNDA.t43 sky130_fd_pr__nfet_01v8 ad=0.3 pd=1.9 as=0.3 ps=1.9 w=1.5 l=0.15
X133 VOUT-.t45 two_stage_opamp_dummy_magic_0.cap_res_X.t116 sky130_fd_pr__cap_mim_m3_1 l=2 w=2
X134 two_stage_opamp_dummy_magic_0.VD1.t8 two_stage_opamp_dummy_magic_0.Vb1.t19 two_stage_opamp_dummy_magic_0.X.t15 GNDA.t43 sky130_fd_pr__nfet_01v8 ad=0.3 pd=1.9 as=0.3 ps=1.9 w=1.5 l=0.15
X135 VOUT-.t46 two_stage_opamp_dummy_magic_0.cap_res_X.t115 sky130_fd_pr__cap_mim_m3_1 l=2 w=2
X136 VOUT-.t4 two_stage_opamp_dummy_magic_0.V_b_2nd_stage.t2 GNDA.t134 GNDA.t133 sky130_fd_pr__nfet_01v8 ad=1.4 pd=7.4 as=1.4 ps=7.4 w=7 l=0.6
X137 GNDA.t254 GNDA.t252 GNDA.t254 GNDA.t253 sky130_fd_pr__nfet_01v8 ad=0.5 pd=2.9 as=0 ps=0 w=2.5 l=0.15
X138 GNDA.t273 bgr_0.NFET_GATE_10uA.t8 two_stage_opamp_dummy_magic_0.Vb3.t7 GNDA.t272 sky130_fd_pr__nfet_01v8 ad=0.2 pd=1.4 as=0.2 ps=1.4 w=1 l=0.15
X139 VOUT-.t47 two_stage_opamp_dummy_magic_0.cap_res_X.t114 sky130_fd_pr__cap_mim_m3_1 l=2 w=2
X140 VDDA.t395 a_6540_22450.t9 a_6540_22450.t10 VDDA.t394 sky130_fd_pr__pfet_01v8 ad=0.2 pd=1.4 as=0.2 ps=1.4 w=1 l=0.2
X141 a_3110_6968.t1 two_stage_opamp_dummy_magic_0.V_CMFB_S4.t10 GNDA.t69 sky130_fd_pr__res_xhigh_po_0p35 l=1.75
X142 VOUT+.t38 two_stage_opamp_dummy_magic_0.cap_res_Y.t49 sky130_fd_pr__cap_mim_m3_1 l=2 w=2
X143 bgr_0.START_UP.t3 bgr_0.V_TOP.t23 VDDA.t393 VDDA.t392 sky130_fd_pr__pfet_01v8 ad=0.6 pd=3.4 as=0.6 ps=3.4 w=3 l=0.5
X144 VOUT+.t39 two_stage_opamp_dummy_magic_0.cap_res_Y.t50 sky130_fd_pr__cap_mim_m3_1 l=2 w=2
X145 two_stage_opamp_dummy_magic_0.VD1.t20 VIN-.t2 two_stage_opamp_dummy_magic_0.V_source.t21 GNDA.t70 sky130_fd_pr__nfet_01v8 ad=0.3 pd=1.9 as=0.3 ps=1.9 w=1.5 l=0.15
X146 VOUT+.t40 two_stage_opamp_dummy_magic_0.cap_res_Y.t120 sky130_fd_pr__cap_mim_m3_1 l=2 w=2
X147 a_11420_30238.t1 bgr_0.Vin-.t6 GNDA.t87 sky130_fd_pr__res_xhigh_po_0p35 l=6
X148 bgr_0.V_TOP.t12 VDDA.t358 VDDA.t360 VDDA.t359 sky130_fd_pr__pfet_01v8 ad=0.2 pd=1.4 as=0.45 ps=2.9 w=1 l=0.15
X149 GNDA.t86 a_11950_28880.t1 GNDA.t85 sky130_fd_pr__res_xhigh_po_0p35 l=4
X150 two_stage_opamp_dummy_magic_0.VD3.t13 two_stage_opamp_dummy_magic_0.Vb2.t16 two_stage_opamp_dummy_magic_0.X.t8 two_stage_opamp_dummy_magic_0.VD3.t12 sky130_fd_pr__pfet_01v8 ad=0.7 pd=3.9 as=0.7 ps=3.9 w=3.5 l=0.2
X151 bgr_0.V_TOP.t24 VDDA.t19 sky130_fd_pr__cap_mim_m3_1 l=2 w=2
X152 VDDA.t75 two_stage_opamp_dummy_magic_0.X.t31 two_stage_opamp_dummy_magic_0.V_CMFB_S2.t11 GNDA.t168 sky130_fd_pr__nfet_01v8 ad=0.6 pd=3.4 as=0.6 ps=3.4 w=3 l=0.15
X153 VOUT-.t48 two_stage_opamp_dummy_magic_0.cap_res_X.t113 sky130_fd_pr__cap_mim_m3_1 l=2 w=2
X154 VOUT+.t41 two_stage_opamp_dummy_magic_0.cap_res_Y.t121 sky130_fd_pr__cap_mim_m3_1 l=2 w=2
X155 VOUT+.t42 two_stage_opamp_dummy_magic_0.cap_res_Y.t15 sky130_fd_pr__cap_mim_m3_1 l=2 w=2
X156 bgr_0.Vin+.t4 bgr_0.V_TOP.t25 VDDA.t21 VDDA.t20 sky130_fd_pr__pfet_01v8 ad=0.6 pd=3.4 as=0.6 ps=3.4 w=3 l=0.5
X157 VDDA.t357 VDDA.t355 two_stage_opamp_dummy_magic_0.Vb2_2.t3 VDDA.t356 sky130_fd_pr__pfet_01v8 ad=0.72 pd=4.4 as=0.36 ps=2.2 w=1.8 l=0.2
X158 two_stage_opamp_dummy_magic_0.VD4.t13 two_stage_opamp_dummy_magic_0.Vb2.t17 two_stage_opamp_dummy_magic_0.Y.t12 two_stage_opamp_dummy_magic_0.VD4.t12 sky130_fd_pr__pfet_01v8 ad=0.7 pd=3.9 as=0.7 ps=3.9 w=3.5 l=0.2
X159 two_stage_opamp_dummy_magic_0.VD1.t18 VIN-.t3 two_stage_opamp_dummy_magic_0.V_source.t19 GNDA.t0 sky130_fd_pr__nfet_01v8 ad=0.3 pd=1.9 as=0.3 ps=1.9 w=1.5 l=0.15
X160 VOUT-.t49 two_stage_opamp_dummy_magic_0.cap_res_X.t112 sky130_fd_pr__cap_mim_m3_1 l=2 w=2
X161 VDDA.t197 bgr_0.V_mir1.t14 bgr_0.1st_Vout_1.t5 VDDA.t196 sky130_fd_pr__pfet_01v8 ad=0.2 pd=1.4 as=0.2 ps=1.4 w=1 l=0.2
X162 two_stage_opamp_dummy_magic_0.V_err_gate.t4 VDDA.t352 VDDA.t354 VDDA.t353 sky130_fd_pr__pfet_01v8 ad=0.5 pd=2.9 as=1 ps=5.8 w=2.5 l=0.15
X163 VDDA.t11 two_stage_opamp_dummy_magic_0.Y.t32 VOUT+.t7 VDDA.t10 sky130_fd_pr__pfet_01v8 ad=1.2 pd=6.4 as=1.2 ps=6.4 w=6 l=0.15
X164 VOUT-.t50 two_stage_opamp_dummy_magic_0.cap_res_X.t111 sky130_fd_pr__cap_mim_m3_1 l=2 w=2
X165 VOUT+.t43 two_stage_opamp_dummy_magic_0.cap_res_Y.t16 sky130_fd_pr__cap_mim_m3_1 l=2 w=2
X166 two_stage_opamp_dummy_magic_0.V_err_gate.t5 two_stage_opamp_dummy_magic_0.V_tot.t4 two_stage_opamp_dummy_magic_0.V_err_mir_p.t1 VDDA.t403 sky130_fd_pr__pfet_01v8 ad=0.5 pd=2.9 as=0.5 ps=2.9 w=2.5 l=0.15
X167 VOUT-.t51 two_stage_opamp_dummy_magic_0.cap_res_X.t110 sky130_fd_pr__cap_mim_m3_1 l=2 w=2
X168 VOUT-.t52 two_stage_opamp_dummy_magic_0.cap_res_X.t109 sky130_fd_pr__cap_mim_m3_1 l=2 w=2
X169 VOUT-.t53 two_stage_opamp_dummy_magic_0.cap_res_X.t108 sky130_fd_pr__cap_mim_m3_1 l=2 w=2
X170 VOUT+.t44 two_stage_opamp_dummy_magic_0.cap_res_Y.t65 sky130_fd_pr__cap_mim_m3_1 l=2 w=2
X171 bgr_0.1st_Vout_2.t13 bgr_0.cap_res2.t16 sky130_fd_pr__cap_mim_m3_1 l=2 w=2
X172 VDDA.t351 VDDA.t348 VDDA.t350 VDDA.t349 sky130_fd_pr__pfet_01v8 ad=0.8 pd=4.8 as=0 ps=0 w=2 l=0.15
X173 VDDA.t332 VDDA.t329 VDDA.t331 VDDA.t330 sky130_fd_pr__pfet_01v8 ad=0.4 pd=2.8 as=0 ps=0 w=1 l=0.15
X174 two_stage_opamp_dummy_magic_0.V_err_p.t3 two_stage_opamp_dummy_magic_0.V_err_gate.t6 VDDA.t163 VDDA.t162 sky130_fd_pr__pfet_01v8 ad=0.5 pd=2.9 as=0.5 ps=2.9 w=2.5 l=0.15
X175 VOUT+.t45 two_stage_opamp_dummy_magic_0.cap_res_Y.t66 sky130_fd_pr__cap_mim_m3_1 l=2 w=2
X176 VOUT+.t46 two_stage_opamp_dummy_magic_0.cap_res_Y.t19 sky130_fd_pr__cap_mim_m3_1 l=2 w=2
X177 two_stage_opamp_dummy_magic_0.err_amp_mir.t3 VDDA.t345 VDDA.t347 VDDA.t346 sky130_fd_pr__pfet_01v8 ad=0.5 pd=2.9 as=1 ps=5.8 w=2.5 l=0.15
X178 VOUT+.t47 two_stage_opamp_dummy_magic_0.cap_res_Y.t20 sky130_fd_pr__cap_mim_m3_1 l=2 w=2
X179 VOUT-.t54 two_stage_opamp_dummy_magic_0.cap_res_X.t107 sky130_fd_pr__cap_mim_m3_1 l=2 w=2
X180 VDDA.t257 bgr_0.PFET_GATE_10uA.t14 two_stage_opamp_dummy_magic_0.V_tail_gate.t8 VDDA.t256 sky130_fd_pr__pfet_01v8 ad=0.2 pd=1.4 as=0.2 ps=1.4 w=1 l=0.15
X181 GNDA.t250 GNDA.t249 two_stage_opamp_dummy_magic_0.VD1.t15 GNDA.t196 sky130_fd_pr__nfet_01v8 ad=0.6 pd=3.8 as=0.3 ps=1.9 w=1.5 l=0.15
X182 VOUT+.t48 two_stage_opamp_dummy_magic_0.cap_res_Y.t13 sky130_fd_pr__cap_mim_m3_1 l=2 w=2
X183 GNDA.t15 two_stage_opamp_dummy_magic_0.Y.t33 two_stage_opamp_dummy_magic_0.V_CMFB_S3.t7 VDDA.t12 sky130_fd_pr__pfet_01v8 ad=0.4 pd=2.4 as=0.4 ps=2.4 w=2 l=0.15
X184 two_stage_opamp_dummy_magic_0.V_CMFB_S4.t14 bgr_0.NFET_GATE_10uA.t9 GNDA.t276 GNDA.t275 sky130_fd_pr__nfet_01v8 ad=0.2 pd=1.4 as=0.2 ps=1.4 w=1 l=0.15
X185 two_stage_opamp_dummy_magic_0.Vb2_Vb3.t6 two_stage_opamp_dummy_magic_0.Vb2_Vb3.t4 two_stage_opamp_dummy_magic_0.Vb3.t5 two_stage_opamp_dummy_magic_0.Vb2_Vb3.t5 sky130_fd_pr__pfet_01v8 ad=1.4 pd=7.8 as=0.7 ps=3.9 w=3.5 l=0.2
X186 VDDA.t61 two_stage_opamp_dummy_magic_0.Y.t34 two_stage_opamp_dummy_magic_0.V_CMFB_S4.t7 GNDA.t49 sky130_fd_pr__nfet_01v8 ad=0.6 pd=3.4 as=0.6 ps=3.4 w=3 l=0.15
X187 VOUT-.t55 two_stage_opamp_dummy_magic_0.cap_res_X.t106 sky130_fd_pr__cap_mim_m3_1 l=2 w=2
X188 two_stage_opamp_dummy_magic_0.Vb2.t10 bgr_0.NFET_GATE_10uA.t10 GNDA.t287 GNDA.t286 sky130_fd_pr__nfet_01v8 ad=0.2 pd=1.4 as=0.2 ps=1.4 w=1 l=0.15
X189 VDDA.t174 bgr_0.V_TOP.t26 bgr_0.Vin-.t3 VDDA.t173 sky130_fd_pr__pfet_01v8 ad=0.6 pd=3.4 as=0.6 ps=3.4 w=3 l=0.5
X190 VOUT+.t49 two_stage_opamp_dummy_magic_0.cap_res_Y.t14 sky130_fd_pr__cap_mim_m3_1 l=2 w=2
X191 GNDA.t54 two_stage_opamp_dummy_magic_0.V_tail_gate.t17 two_stage_opamp_dummy_magic_0.V_p_mir.t2 GNDA.t53 sky130_fd_pr__nfet_01v8 ad=0.5 pd=2.9 as=0.5 ps=2.9 w=2.5 l=0.15
X192 VDDA.t344 VDDA.t342 bgr_0.V_TOP.t11 VDDA.t343 sky130_fd_pr__pfet_01v8 ad=0.4 pd=2.8 as=0.2 ps=1.4 w=1 l=0.2
X193 VDDA.t341 VDDA.t339 two_stage_opamp_dummy_magic_0.VD3.t20 VDDA.t340 sky130_fd_pr__pfet_01v8 ad=1.4 pd=7.8 as=0.7 ps=3.9 w=3.5 l=0.2
X194 GNDA.t248 GNDA.t247 two_stage_opamp_dummy_magic_0.VD2.t20 GNDA.t0 sky130_fd_pr__nfet_01v8 ad=0.6 pd=3.8 as=0.3 ps=1.9 w=1.5 l=0.15
X195 VOUT-.t56 two_stage_opamp_dummy_magic_0.cap_res_X.t105 sky130_fd_pr__cap_mim_m3_1 l=2 w=2
X196 GNDA.t176 GNDA.t236 bgr_0.sky130_fd_pr__rf_pnp_05v5_W3p40L3p40_25.Emitter.t7 sky130_fd_pr__pnp_05v5_W3p40L3p40
**devattr s=462400,2720
X197 GNDA.t55 two_stage_opamp_dummy_magic_0.V_tail_gate.t18 two_stage_opamp_dummy_magic_0.V_source.t35 GNDA.t4 sky130_fd_pr__nfet_01v8 ad=0.5 pd=2.9 as=0.5 ps=2.9 w=2.5 l=0.15
X198 VOUT+.t11 a_3830_3166.t0 GNDA.t77 sky130_fd_pr__res_xhigh_po_0p35 l=2.63
X199 VOUT+.t50 two_stage_opamp_dummy_magic_0.cap_res_Y.t90 sky130_fd_pr__cap_mim_m3_1 l=2 w=2
X200 two_stage_opamp_dummy_magic_0.VD4.t29 two_stage_opamp_dummy_magic_0.Vb3.t11 VDDA.t68 VDDA.t67 sky130_fd_pr__pfet_01v8 ad=0.7 pd=3.9 as=0.7 ps=3.9 w=3.5 l=0.2
X201 VOUT-.t57 two_stage_opamp_dummy_magic_0.cap_res_X.t104 sky130_fd_pr__cap_mim_m3_1 l=2 w=2
X202 VOUT-.t58 two_stage_opamp_dummy_magic_0.cap_res_X.t103 sky130_fd_pr__cap_mim_m3_1 l=2 w=2
X203 VDDA.t415 two_stage_opamp_dummy_magic_0.X.t32 VOUT-.t13 VDDA.t414 sky130_fd_pr__pfet_01v8 ad=1.2 pd=6.4 as=1.2 ps=6.4 w=6 l=0.15
X204 bgr_0.1st_Vout_1.t9 bgr_0.cap_res1.t18 sky130_fd_pr__cap_mim_m3_1 l=2 w=2
X205 VOUT+.t51 two_stage_opamp_dummy_magic_0.cap_res_Y.t91 sky130_fd_pr__cap_mim_m3_1 l=2 w=2
X206 GNDA.t211 GNDA.t235 bgr_0.sky130_fd_pr__rf_pnp_05v5_W3p40L3p40_25.Emitter.t6 sky130_fd_pr__pnp_05v5_W3p40L3p40
**devattr s=462400,2720
X207 VDDA.t140 bgr_0.1st_Vout_1.t10 bgr_0.V_TOP.t3 VDDA.t139 sky130_fd_pr__pfet_01v8 ad=0.2 pd=1.4 as=0.2 ps=1.4 w=1 l=0.2
X208 VOUT+.t52 two_stage_opamp_dummy_magic_0.cap_res_Y.t128 sky130_fd_pr__cap_mim_m3_1 l=2 w=2
X209 bgr_0.START_UP.t5 bgr_0.START_UP.t4 bgr_0.START_UP_NFET1.t0 GNDA.t68 sky130_fd_pr__nfet_01v8 ad=0.4 pd=2.8 as=0.2 ps=1.4 w=1 l=10
X210 VOUT+.t53 two_stage_opamp_dummy_magic_0.cap_res_Y.t129 sky130_fd_pr__cap_mim_m3_1 l=2 w=2
X211 GNDA.t76 two_stage_opamp_dummy_magic_0.err_amp_mir.t0 two_stage_opamp_dummy_magic_0.err_amp_mir.t1 GNDA.t75 sky130_fd_pr__nfet_01v8 ad=0.5 pd=2.9 as=0.5 ps=2.9 w=2.5 l=0.15
X212 two_stage_opamp_dummy_magic_0.VD1.t7 two_stage_opamp_dummy_magic_0.Vb1.t20 two_stage_opamp_dummy_magic_0.X.t10 GNDA.t43 sky130_fd_pr__nfet_01v8 ad=0.3 pd=1.9 as=0.3 ps=1.9 w=1.5 l=0.15
X213 VOUT-.t59 two_stage_opamp_dummy_magic_0.cap_res_X.t102 sky130_fd_pr__cap_mim_m3_1 l=2 w=2
X214 two_stage_opamp_dummy_magic_0.V_source.t4 two_stage_opamp_dummy_magic_0.err_amp_out.t4 GNDA.t36 GNDA.t35 sky130_fd_pr__nfet_01v8 ad=0.5 pd=2.9 as=0.5 ps=2.9 w=2.5 l=0.15
X215 bgr_0.NFET_GATE_10uA.t1 bgr_0.NFET_GATE_10uA.t0 GNDA.t271 GNDA.t270 sky130_fd_pr__nfet_01v8 ad=0.2 pd=1.4 as=0.2 ps=1.4 w=1 l=0.15
X216 VOUT+.t54 two_stage_opamp_dummy_magic_0.cap_res_Y.t35 sky130_fd_pr__cap_mim_m3_1 l=2 w=2
X217 VDDA.t176 bgr_0.V_TOP.t27 bgr_0.Vin+.t3 VDDA.t175 sky130_fd_pr__pfet_01v8 ad=0.6 pd=3.4 as=0.6 ps=3.4 w=3 l=0.5
X218 VOUT+.t55 two_stage_opamp_dummy_magic_0.cap_res_Y.t36 sky130_fd_pr__cap_mim_m3_1 l=2 w=2
X219 VOUT+.t56 two_stage_opamp_dummy_magic_0.cap_res_Y.t43 sky130_fd_pr__cap_mim_m3_1 l=2 w=2
X220 GNDA.t167 two_stage_opamp_dummy_magic_0.X.t33 two_stage_opamp_dummy_magic_0.V_CMFB_S1.t14 VDDA.t124 sky130_fd_pr__pfet_01v8 ad=0.4 pd=2.4 as=0.4 ps=2.4 w=2 l=0.15
X221 bgr_0.1st_Vout_1.t11 bgr_0.cap_res1.t17 sky130_fd_pr__cap_mim_m3_1 l=2 w=2
X222 VOUT-.t60 two_stage_opamp_dummy_magic_0.cap_res_X.t101 sky130_fd_pr__cap_mim_m3_1 l=2 w=2
X223 VDDA.t88 two_stage_opamp_dummy_magic_0.X.t34 two_stage_opamp_dummy_magic_0.V_CMFB_S2.t10 GNDA.t166 sky130_fd_pr__nfet_01v8 ad=0.6 pd=3.4 as=0.6 ps=3.4 w=3 l=0.15
X224 VDDA.t338 VDDA.t336 two_stage_opamp_dummy_magic_0.VD4.t20 VDDA.t337 sky130_fd_pr__pfet_01v8 ad=1.4 pd=7.8 as=0.7 ps=3.9 w=3.5 l=0.2
X225 two_stage_opamp_dummy_magic_0.X.t5 two_stage_opamp_dummy_magic_0.Vb1.t21 two_stage_opamp_dummy_magic_0.VD1.t6 GNDA.t45 sky130_fd_pr__nfet_01v8 ad=0.3 pd=1.9 as=0.3 ps=1.9 w=1.5 l=0.15
X226 VOUT+.t57 two_stage_opamp_dummy_magic_0.cap_res_Y.t44 sky130_fd_pr__cap_mim_m3_1 l=2 w=2
X227 VOUT+.t58 two_stage_opamp_dummy_magic_0.cap_res_Y.t47 sky130_fd_pr__cap_mim_m3_1 l=2 w=2
X228 VDDA.t113 two_stage_opamp_dummy_magic_0.X.t35 two_stage_opamp_dummy_magic_0.V_CMFB_S2.t9 GNDA.t165 sky130_fd_pr__nfet_01v8 ad=0.6 pd=3.4 as=0.6 ps=3.4 w=3 l=0.15
X229 VOUT-.t61 two_stage_opamp_dummy_magic_0.cap_res_X.t100 sky130_fd_pr__cap_mim_m3_1 l=2 w=2
X230 bgr_0.V_TOP.t28 VDDA.t416 sky130_fd_pr__cap_mim_m3_1 l=2 w=2
X231 VOUT+.t59 two_stage_opamp_dummy_magic_0.cap_res_Y.t48 sky130_fd_pr__cap_mim_m3_1 l=2 w=2
X232 GNDA.t176 GNDA.t244 bgr_0.sky130_fd_pr__rf_pnp_05v5_W3p40L3p40_25.Emitter.t5 sky130_fd_pr__pnp_05v5_W3p40L3p40
**devattr s=462400,2720
X233 VDDA.t25 bgr_0.V_mir1.t8 bgr_0.V_mir1.t9 VDDA.t24 sky130_fd_pr__pfet_01v8 ad=0.2 pd=1.4 as=0.2 ps=1.4 w=1 l=0.2
X234 two_stage_opamp_dummy_magic_0.VD1.t14 GNDA.t245 GNDA.t246 GNDA.t0 sky130_fd_pr__nfet_01v8 ad=0.3 pd=1.9 as=0.6 ps=3.8 w=1.5 l=0.15
X235 GNDA.t243 GNDA.t240 GNDA.t242 GNDA.t241 sky130_fd_pr__nfet_01v8 ad=0.4 pd=2.8 as=0 ps=0 w=1 l=0.15
X236 VDDA.t335 VDDA.t333 bgr_0.NFET_GATE_10uA.t3 VDDA.t334 sky130_fd_pr__pfet_01v8 ad=0.4 pd=2.8 as=0.2 ps=1.4 w=1 l=0.15
X237 bgr_0.1st_Vout_1.t12 bgr_0.cap_res1.t16 sky130_fd_pr__cap_mim_m3_1 l=2 w=2
X238 VDDA.t63 two_stage_opamp_dummy_magic_0.Y.t35 VOUT+.t6 VDDA.t62 sky130_fd_pr__pfet_01v8 ad=1.2 pd=6.4 as=1.2 ps=6.4 w=6 l=0.15
X239 VOUT+.t60 two_stage_opamp_dummy_magic_0.cap_res_Y.t29 sky130_fd_pr__cap_mim_m3_1 l=2 w=2