* PEX produced on Sat Jul  5 05:14:37 PM CEST 2025 using /foss/tools/osic-multitool/iic-pex.sh with m=3 and s=1
* NGSPICE file created from bgr_opamp_dummy_magic.ext - technology: sky130A

.subckt bgr_opamp_dummy_magic VDDA GNDA VOUT+ VOUT- VIN+ VIN-
X0 VDDA.t315 bgr_0.V_TOP.t14 bgr_0.Vin-.t4 VDDA.t314 sky130_fd_pr__pfet_01v8 ad=0.6 pd=3.4 as=0.6 ps=3.4 w=3 l=0.5
X1 two_stage_opamp_dummy_magic_0.err_amp_mir.t8 two_stage_opamp_dummy_magic_0.err_amp_mir.t7 GNDA.t216 GNDA.t215 sky130_fd_pr__nfet_01v8 ad=0.1 pd=0.9 as=0.1 ps=0.9 w=0.5 l=0.15
X2 bgr_0.1st_Vout_1.t11 bgr_0.cap_res1.t20 sky130_fd_pr__cap_mim_m3_1 l=2 w=2
X3 bgr_0.V_TOP.t15 VDDA.t313 sky130_fd_pr__cap_mim_m3_1 l=2 w=2
X4 two_stage_opamp_dummy_magic_0.VD2.t17 GNDA.t314 GNDA.t316 GNDA.t315 sky130_fd_pr__nfet_01v8 ad=0.3 pd=1.9 as=0.6 ps=3.8 w=1.5 l=0.15
X5 two_stage_opamp_dummy_magic_0.VOUT+.t19 two_stage_opamp_dummy_magic_0.cap_res_Y.t138 sky130_fd_pr__cap_mim_m3_1 l=2 w=2
X6 GNDA.t248 GNDA.t313 bgr_0.Vbe2.t7 sky130_fd_pr__pnp_05v5_W3p40L3p40
**devattr s=462400,2720
X7 two_stage_opamp_dummy_magic_0.V_CMFB_S3.t13 two_stage_opamp_dummy_magic_0.Y.t25 GNDA.t47 VDDA.t55 sky130_fd_pr__pfet_01v8 ad=0.4 pd=2.4 as=0.4 ps=2.4 w=2 l=0.15
X8 two_stage_opamp_dummy_magic_0.VOUT+.t20 two_stage_opamp_dummy_magic_0.cap_res_Y.t137 sky130_fd_pr__cap_mim_m3_1 l=2 w=2
X9 two_stage_opamp_dummy_magic_0.VOUT+.t21 two_stage_opamp_dummy_magic_0.cap_res_Y.t136 sky130_fd_pr__cap_mim_m3_1 l=2 w=2
X10 bgr_0.NFET_GATE_10uA.t1 bgr_0.NFET_GATE_10uA.t0 GNDA.t44 GNDA.t43 sky130_fd_pr__nfet_01v8 ad=0.2 pd=1.4 as=0.2 ps=1.4 w=1 l=0.15
X11 bgr_0.1st_Vout_1.t12 bgr_0.cap_res1.t19 sky130_fd_pr__cap_mim_m3_1 l=2 w=2
X12 bgr_0.V_TOP.t16 VDDA.t312 sky130_fd_pr__cap_mim_m3_1 l=2 w=2
X13 VDDA.t202 bgr_0.V_mir2.t10 bgr_0.V_mir2.t11 VDDA.t201 sky130_fd_pr__pfet_01v8 ad=0.2 pd=1.4 as=0.2 ps=1.4 w=1 l=0.2
X14 two_stage_opamp_dummy_magic_0.V_err_gate.t6 two_stage_opamp_dummy_magic_0.V_err_amp_ref.t7 two_stage_opamp_dummy_magic_0.V_err_mir_p.t9 VDDA.t262 sky130_fd_pr__pfet_01v8 ad=0.1 pd=0.9 as=0.1 ps=0.9 w=0.5 l=0.15
X15 two_stage_opamp_dummy_magic_0.VOUT+.t22 two_stage_opamp_dummy_magic_0.cap_res_Y.t135 sky130_fd_pr__cap_mim_m3_1 l=2 w=2
X16 two_stage_opamp_dummy_magic_0.VOUT+.t23 two_stage_opamp_dummy_magic_0.cap_res_Y.t134 sky130_fd_pr__cap_mim_m3_1 l=2 w=2
X17 two_stage_opamp_dummy_magic_0.Y.t8 two_stage_opamp_dummy_magic_0.Vb2.t11 two_stage_opamp_dummy_magic_0.VD4.t20 two_stage_opamp_dummy_magic_0.VD4.t19 sky130_fd_pr__pfet_01v8 ad=0.7 pd=3.9 as=0.7 ps=3.9 w=3.5 l=0.2
X18 VDDA.t47 two_stage_opamp_dummy_magic_0.X.t25 two_stage_opamp_dummy_magic_0.VOUT-.t13 VDDA.t46 sky130_fd_pr__pfet_01v8 ad=1.2 pd=6.4 as=1.2 ps=6.4 w=6 l=0.15
X19 two_stage_opamp_dummy_magic_0.Y.t11 two_stage_opamp_dummy_magic_0.Vb1.t6 two_stage_opamp_dummy_magic_0.VD2.t9 GNDA.t126 sky130_fd_pr__nfet_01v8 ad=0.3 pd=1.9 as=0.3 ps=1.9 w=1.5 l=0.15
X20 two_stage_opamp_dummy_magic_0.VOUT+.t24 two_stage_opamp_dummy_magic_0.cap_res_Y.t133 sky130_fd_pr__cap_mim_m3_1 l=2 w=2
X21 two_stage_opamp_dummy_magic_0.VOUT+.t25 two_stage_opamp_dummy_magic_0.cap_res_Y.t132 sky130_fd_pr__cap_mim_m3_1 l=2 w=2
X22 VDDA.t42 two_stage_opamp_dummy_magic_0.X.t26 two_stage_opamp_dummy_magic_0.VOUT-.t12 VDDA.t41 sky130_fd_pr__pfet_01v8 ad=1.2 pd=6.4 as=1.2 ps=6.4 w=6 l=0.15
X23 VDDA.t145 bgr_0.PFET_GATE_10uA.t10 two_stage_opamp_dummy_magic_0.V_CMFB_S3.t1 VDDA.t144 sky130_fd_pr__pfet_01v8 ad=0.2 pd=1.4 as=0.2 ps=1.4 w=1 l=0.15
X24 two_stage_opamp_dummy_magic_0.VOUT+.t26 two_stage_opamp_dummy_magic_0.cap_res_Y.t131 sky130_fd_pr__cap_mim_m3_1 l=2 w=2
X25 two_stage_opamp_dummy_magic_0.VOUT-.t18 GNDA.t310 GNDA.t312 GNDA.t311 sky130_fd_pr__nfet_01v8 ad=1.4 pd=7.4 as=2.8 ps=14.8 w=7 l=0.6
X26 a_14520_5068.t0 two_stage_opamp_dummy_magic_0.V_CMFB_S2.t0 GNDA.t91 sky130_fd_pr__res_xhigh_po_0p35 l=1.75
X27 bgr_0.V_TOP.t17 VDDA.t311 sky130_fd_pr__cap_mim_m3_1 l=2 w=2
X28 VDDA.t65 two_stage_opamp_dummy_magic_0.V_err_gate.t14 two_stage_opamp_dummy_magic_0.V_err_mir_p.t1 VDDA.t64 sky130_fd_pr__pfet_01v8 ad=0.1 pd=0.9 as=0.1 ps=0.9 w=0.5 l=0.15
X29 VDDA.t29 bgr_0.V_mir1.t17 bgr_0.1st_Vout_1.t4 VDDA.t28 sky130_fd_pr__pfet_01v8 ad=0.2 pd=1.4 as=0.2 ps=1.4 w=1 l=0.2
X30 two_stage_opamp_dummy_magic_0.VOUT-.t19 two_stage_opamp_dummy_magic_0.cap_res_X.t138 sky130_fd_pr__cap_mim_m3_1 l=2 w=2
X31 bgr_0.START_UP_NFET1.t0 bgr_0.START_UP_NFET1 GNDA.t8 GNDA.t7 sky130_fd_pr__nfet_01v8 ad=0.2 pd=1.4 as=0.4 ps=2.8 w=1 l=10
X32 two_stage_opamp_dummy_magic_0.VOUT-.t20 two_stage_opamp_dummy_magic_0.cap_res_X.t137 sky130_fd_pr__cap_mim_m3_1 l=2 w=2
X33 two_stage_opamp_dummy_magic_0.VOUT-.t21 two_stage_opamp_dummy_magic_0.cap_res_X.t136 sky130_fd_pr__cap_mim_m3_1 l=2 w=2
X34 two_stage_opamp_dummy_magic_0.VOUT+.t27 two_stage_opamp_dummy_magic_0.cap_res_Y.t130 sky130_fd_pr__cap_mim_m3_1 l=2 w=2
X35 two_stage_opamp_dummy_magic_0.VOUT+.t28 two_stage_opamp_dummy_magic_0.cap_res_Y.t129 sky130_fd_pr__cap_mim_m3_1 l=2 w=2
X36 two_stage_opamp_dummy_magic_0.VOUT+.t29 two_stage_opamp_dummy_magic_0.cap_res_Y.t128 sky130_fd_pr__cap_mim_m3_1 l=2 w=2
X37 two_stage_opamp_dummy_magic_0.VOUT-.t22 two_stage_opamp_dummy_magic_0.cap_res_X.t135 sky130_fd_pr__cap_mim_m3_1 l=2 w=2
X38 bgr_0.1st_Vout_1.t13 bgr_0.cap_res1.t18 sky130_fd_pr__cap_mim_m3_1 l=2 w=2
X39 two_stage_opamp_dummy_magic_0.V_p_mir.t3 two_stage_opamp_dummy_magic_0.V_tail_gate.t12 GNDA.t18 GNDA.t17 sky130_fd_pr__nfet_01v8 ad=0.5 pd=2.9 as=0.5 ps=2.9 w=2.5 l=0.15
X40 two_stage_opamp_dummy_magic_0.VOUT+.t16 two_stage_opamp_dummy_magic_0.V_b_2nd_stage.t2 GNDA.t322 GNDA.t321 sky130_fd_pr__nfet_01v8 ad=1.4 pd=7.4 as=1.4 ps=7.4 w=7 l=0.6
X41 VDDA.t14 two_stage_opamp_dummy_magic_0.Y.t26 two_stage_opamp_dummy_magic_0.VOUT+.t1 VDDA.t13 sky130_fd_pr__pfet_01v8 ad=1.2 pd=6.4 as=1.2 ps=6.4 w=6 l=0.15
X42 two_stage_opamp_dummy_magic_0.V_CMFB_S2.t13 two_stage_opamp_dummy_magic_0.X.t27 VDDA.t130 GNDA.t105 sky130_fd_pr__nfet_01v8 ad=0.6 pd=3.4 as=0.6 ps=3.4 w=3 l=0.15
X43 two_stage_opamp_dummy_magic_0.VOUT+.t30 two_stage_opamp_dummy_magic_0.cap_res_Y.t127 sky130_fd_pr__cap_mim_m3_1 l=2 w=2
X44 bgr_0.V_mir2.t16 two_stage_opamp_dummy_magic_0.V_err_amp_ref.t8 bgr_0.V_p_2.t5 GNDA.t182 sky130_fd_pr__nfet_01v8 ad=0.1 pd=0.9 as=0.1 ps=0.9 w=0.5 l=0.2
X45 bgr_0.Vin-.t6 bgr_0.V_TOP.t18 VDDA.t310 VDDA.t309 sky130_fd_pr__pfet_01v8 ad=0.6 pd=3.4 as=0.6 ps=3.4 w=3 l=0.5
X46 VDDA.t430 VDDA.t428 two_stage_opamp_dummy_magic_0.V_err_gate.t12 VDDA.t429 sky130_fd_pr__pfet_01v8 ad=0.2 pd=1.8 as=0.1 ps=0.9 w=0.5 l=0.15
X47 GNDA.t176 bgr_0.NFET_GATE_10uA.t5 two_stage_opamp_dummy_magic_0.V_CMFB_S2.t3 GNDA.t175 sky130_fd_pr__nfet_01v8 ad=0.2 pd=1.4 as=0.2 ps=1.4 w=1 l=0.15
X48 GNDA.t38 bgr_0.NFET_GATE_10uA.t6 two_stage_opamp_dummy_magic_0.V_CMFB_S2.t2 GNDA.t37 sky130_fd_pr__nfet_01v8 ad=0.2 pd=1.4 as=0.2 ps=1.4 w=1 l=0.15
X49 two_stage_opamp_dummy_magic_0.V_err_p.t19 two_stage_opamp_dummy_magic_0.V_err_gate.t15 VDDA.t67 VDDA.t66 sky130_fd_pr__pfet_01v8 ad=0.1 pd=0.9 as=0.1 ps=0.9 w=0.5 l=0.15
X50 two_stage_opamp_dummy_magic_0.VOUT+.t31 two_stage_opamp_dummy_magic_0.cap_res_Y.t126 sky130_fd_pr__cap_mim_m3_1 l=2 w=2
X51 two_stage_opamp_dummy_magic_0.VOUT-.t23 two_stage_opamp_dummy_magic_0.cap_res_X.t134 sky130_fd_pr__cap_mim_m3_1 l=2 w=2
X52 two_stage_opamp_dummy_magic_0.Y.t2 two_stage_opamp_dummy_magic_0.Vb2.t12 two_stage_opamp_dummy_magic_0.VD4.t18 two_stage_opamp_dummy_magic_0.VD4.t17 sky130_fd_pr__pfet_01v8 ad=0.7 pd=3.9 as=0.7 ps=3.9 w=3.5 l=0.2
X53 two_stage_opamp_dummy_magic_0.V_err_p.t0 two_stage_opamp_dummy_magic_0.V_tot.t4 two_stage_opamp_dummy_magic_0.err_amp_mir.t1 VDDA.t43 sky130_fd_pr__pfet_01v8 ad=0.1 pd=0.9 as=0.1 ps=0.9 w=0.5 l=0.15
X54 two_stage_opamp_dummy_magic_0.X.t11 two_stage_opamp_dummy_magic_0.Vb1.t7 two_stage_opamp_dummy_magic_0.VD1.t20 GNDA.t62 sky130_fd_pr__nfet_01v8 ad=0.3 pd=1.9 as=0.3 ps=1.9 w=1.5 l=0.15
X55 two_stage_opamp_dummy_magic_0.VOUT-.t24 two_stage_opamp_dummy_magic_0.cap_res_X.t133 sky130_fd_pr__cap_mim_m3_1 l=2 w=2
X56 two_stage_opamp_dummy_magic_0.V_CMFB_S1.t14 two_stage_opamp_dummy_magic_0.X.t28 GNDA.t21 VDDA.t26 sky130_fd_pr__pfet_01v8 ad=0.4 pd=2.4 as=0.4 ps=2.4 w=2 l=0.15
X57 bgr_0.1st_Vout_1.t3 bgr_0.Vin+.t6 bgr_0.V_p_1.t4 GNDA.t22 sky130_fd_pr__nfet_01v8 ad=0.1 pd=0.9 as=0.1 ps=0.9 w=0.5 l=0.2
X58 two_stage_opamp_dummy_magic_0.VOUT-.t25 two_stage_opamp_dummy_magic_0.cap_res_X.t132 sky130_fd_pr__cap_mim_m3_1 l=2 w=2
X59 bgr_0.1st_Vout_2.t11 bgr_0.cap_res2.t19 sky130_fd_pr__cap_mim_m3_1 l=2 w=2
X60 GNDA.t327 two_stage_opamp_dummy_magic_0.V_tail_gate.t13 two_stage_opamp_dummy_magic_0.V_source.t38 GNDA.t326 sky130_fd_pr__nfet_01v8 ad=0.5 pd=2.9 as=0.5 ps=2.9 w=2.5 l=0.15
X61 VDDA.t427 VDDA.t425 bgr_0.V_TOP.t2 VDDA.t426 sky130_fd_pr__pfet_01v8 ad=0.4 pd=2.8 as=0.2 ps=1.4 w=1 l=0.2
X62 GNDA.t158 two_stage_opamp_dummy_magic_0.V_tail_gate.t14 two_stage_opamp_dummy_magic_0.V_source.t37 GNDA.t157 sky130_fd_pr__nfet_01v8 ad=0.5 pd=2.9 as=0.5 ps=2.9 w=2.5 l=0.15
X63 two_stage_opamp_dummy_magic_0.V_CMFB_S4.t13 two_stage_opamp_dummy_magic_0.Y.t27 VDDA.t15 GNDA.t14 sky130_fd_pr__nfet_01v8 ad=0.6 pd=3.4 as=0.6 ps=3.4 w=3 l=0.15
X64 two_stage_opamp_dummy_magic_0.VD1.t3 VIN-.t0 two_stage_opamp_dummy_magic_0.V_source.t8 GNDA.t94 sky130_fd_pr__nfet_01v8 ad=0.3 pd=1.9 as=0.3 ps=1.9 w=1.5 l=0.15
X65 two_stage_opamp_dummy_magic_0.V_err_p.t18 two_stage_opamp_dummy_magic_0.V_err_gate.t16 VDDA.t23 VDDA.t22 sky130_fd_pr__pfet_01v8 ad=0.1 pd=0.9 as=0.1 ps=0.9 w=0.5 l=0.15
X66 two_stage_opamp_dummy_magic_0.VOUT-.t26 two_stage_opamp_dummy_magic_0.cap_res_X.t131 sky130_fd_pr__cap_mim_m3_1 l=2 w=2
X67 GNDA.t40 bgr_0.NFET_GATE_10uA.t7 two_stage_opamp_dummy_magic_0.Vb2.t7 GNDA.t39 sky130_fd_pr__nfet_01v8 ad=0.2 pd=1.4 as=0.2 ps=1.4 w=1 l=0.15
X68 GNDA.t309 GNDA.t307 two_stage_opamp_dummy_magic_0.Vb2.t10 GNDA.t308 sky130_fd_pr__nfet_01v8 ad=0.4 pd=2.8 as=0.2 ps=1.4 w=1 l=0.15
X69 VDDA.t179 bgr_0.V_mir1.t18 bgr_0.1st_Vout_1.t8 VDDA.t178 sky130_fd_pr__pfet_01v8 ad=0.2 pd=1.4 as=0.2 ps=1.4 w=1 l=0.2
X70 two_stage_opamp_dummy_magic_0.VOUT+.t32 two_stage_opamp_dummy_magic_0.cap_res_Y.t125 sky130_fd_pr__cap_mim_m3_1 l=2 w=2
X71 two_stage_opamp_dummy_magic_0.VOUT-.t27 two_stage_opamp_dummy_magic_0.cap_res_X.t130 sky130_fd_pr__cap_mim_m3_1 l=2 w=2
X72 two_stage_opamp_dummy_magic_0.err_amp_out.t10 two_stage_opamp_dummy_magic_0.err_amp_mir.t17 GNDA.t214 GNDA.t213 sky130_fd_pr__nfet_01v8 ad=0.1 pd=0.9 as=0.1 ps=0.9 w=0.5 l=0.15
X73 two_stage_opamp_dummy_magic_0.VOUT-.t28 two_stage_opamp_dummy_magic_0.cap_res_X.t129 sky130_fd_pr__cap_mim_m3_1 l=2 w=2
X74 two_stage_opamp_dummy_magic_0.VOUT-.t29 two_stage_opamp_dummy_magic_0.cap_res_X.t128 sky130_fd_pr__cap_mim_m3_1 l=2 w=2
X75 two_stage_opamp_dummy_magic_0.VOUT+.t33 two_stage_opamp_dummy_magic_0.cap_res_Y.t124 sky130_fd_pr__cap_mim_m3_1 l=2 w=2
X76 two_stage_opamp_dummy_magic_0.VD1.t0 VIN-.t1 two_stage_opamp_dummy_magic_0.V_source.t2 GNDA.t19 sky130_fd_pr__nfet_01v8 ad=0.3 pd=1.9 as=0.3 ps=1.9 w=1.5 l=0.15
X77 two_stage_opamp_dummy_magic_0.VOUT-.t30 two_stage_opamp_dummy_magic_0.cap_res_X.t127 sky130_fd_pr__cap_mim_m3_1 l=2 w=2
X78 bgr_0.NFET_GATE_10uA.t4 bgr_0.PFET_GATE_10uA.t11 VDDA.t448 VDDA.t447 sky130_fd_pr__pfet_01v8 ad=0.2 pd=1.4 as=0.2 ps=1.4 w=1 l=0.15
X79 two_stage_opamp_dummy_magic_0.err_amp_out.t9 two_stage_opamp_dummy_magic_0.err_amp_mir.t18 GNDA.t212 GNDA.t211 sky130_fd_pr__nfet_01v8 ad=0.1 pd=0.9 as=0.1 ps=0.9 w=0.5 l=0.15
X80 bgr_0.1st_Vout_2.t12 bgr_0.cap_res2.t18 sky130_fd_pr__cap_mim_m3_1 l=2 w=2
X81 VDDA.t31 bgr_0.PFET_GATE_10uA.t12 two_stage_opamp_dummy_magic_0.V_tail_gate.t7 VDDA.t30 sky130_fd_pr__pfet_01v8 ad=0.2 pd=1.4 as=0.2 ps=1.4 w=1 l=0.15
X82 GNDA.t306 GNDA.t304 two_stage_opamp_dummy_magic_0.X.t20 GNDA.t305 sky130_fd_pr__nfet_01v8 ad=0.6 pd=3.8 as=0.3 ps=1.9 w=1.5 l=0.15
X83 two_stage_opamp_dummy_magic_0.VOUT+.t34 two_stage_opamp_dummy_magic_0.cap_res_Y.t123 sky130_fd_pr__cap_mim_m3_1 l=2 w=2
X84 VDDA.t424 VDDA.t422 bgr_0.NFET_GATE_10uA.t2 VDDA.t423 sky130_fd_pr__pfet_01v8 ad=0.4 pd=2.8 as=0.2 ps=1.4 w=1 l=0.15
X85 two_stage_opamp_dummy_magic_0.Y.t20 GNDA.t301 GNDA.t303 GNDA.t302 sky130_fd_pr__nfet_01v8 ad=0.3 pd=1.9 as=0.6 ps=3.8 w=1.5 l=0.15
X86 VDDA.t115 two_stage_opamp_dummy_magic_0.X.t29 two_stage_opamp_dummy_magic_0.VOUT-.t11 VDDA.t114 sky130_fd_pr__pfet_01v8 ad=1.2 pd=6.4 as=1.2 ps=6.4 w=6 l=0.15
X87 VDDA.t442 bgr_0.1st_Vout_1.t14 bgr_0.V_TOP.t11 VDDA.t441 sky130_fd_pr__pfet_01v8 ad=0.2 pd=1.4 as=0.2 ps=1.4 w=1 l=0.2
X88 GNDA.t300 GNDA.t298 two_stage_opamp_dummy_magic_0.VD1.t8 GNDA.t299 sky130_fd_pr__nfet_01v8 ad=0.6 pd=3.8 as=0.3 ps=1.9 w=1.5 l=0.15
X89 two_stage_opamp_dummy_magic_0.VOUT-.t31 two_stage_opamp_dummy_magic_0.cap_res_X.t126 sky130_fd_pr__cap_mim_m3_1 l=2 w=2
X90 two_stage_opamp_dummy_magic_0.VD3.t36 VDDA.t419 VDDA.t421 VDDA.t420 sky130_fd_pr__pfet_01v8 ad=0.7 pd=3.9 as=1.4 ps=7.8 w=3.5 l=0.2
X91 two_stage_opamp_dummy_magic_0.VOUT-.t32 two_stage_opamp_dummy_magic_0.cap_res_X.t125 sky130_fd_pr__cap_mim_m3_1 l=2 w=2
X92 two_stage_opamp_dummy_magic_0.VOUT-.t0 a_14240_2076.t0 GNDA.t6 sky130_fd_pr__res_xhigh_po_0p35 l=2.63
X93 two_stage_opamp_dummy_magic_0.VOUT+.t35 two_stage_opamp_dummy_magic_0.cap_res_Y.t122 sky130_fd_pr__cap_mim_m3_1 l=2 w=2
X94 two_stage_opamp_dummy_magic_0.VOUT-.t33 two_stage_opamp_dummy_magic_0.cap_res_X.t124 sky130_fd_pr__cap_mim_m3_1 l=2 w=2
X95 VDDA.t462 bgr_0.V_mir2.t8 bgr_0.V_mir2.t9 VDDA.t461 sky130_fd_pr__pfet_01v8 ad=0.2 pd=1.4 as=0.2 ps=1.4 w=1 l=0.2
X96 two_stage_opamp_dummy_magic_0.VD3.t30 two_stage_opamp_dummy_magic_0.VD3.t28 two_stage_opamp_dummy_magic_0.X.t18 two_stage_opamp_dummy_magic_0.VD3.t29 sky130_fd_pr__pfet_01v8 ad=1.4 pd=7.8 as=0.7 ps=3.9 w=3.5 l=0.2
X97 GNDA.t122 bgr_0.NFET_GATE_10uA.t8 two_stage_opamp_dummy_magic_0.Vb3.t5 GNDA.t121 sky130_fd_pr__nfet_01v8 ad=0.2 pd=1.4 as=0.2 ps=1.4 w=1 l=0.15
X98 VDDA.t25 two_stage_opamp_dummy_magic_0.V_err_gate.t17 two_stage_opamp_dummy_magic_0.V_err_p.t17 VDDA.t24 sky130_fd_pr__pfet_01v8 ad=0.1 pd=0.9 as=0.1 ps=0.9 w=0.5 l=0.15
X99 two_stage_opamp_dummy_magic_0.VOUT+.t36 two_stage_opamp_dummy_magic_0.cap_res_Y.t121 sky130_fd_pr__cap_mim_m3_1 l=2 w=2
X100 two_stage_opamp_dummy_magic_0.Vb3.t4 bgr_0.NFET_GATE_10uA.t9 GNDA.t124 GNDA.t123 sky130_fd_pr__nfet_01v8 ad=0.2 pd=1.4 as=0.2 ps=1.4 w=1 l=0.15
X101 GNDA.t297 GNDA.t295 two_stage_opamp_dummy_magic_0.VD1.t7 GNDA.t296 sky130_fd_pr__nfet_01v8 ad=0.6 pd=3.8 as=0.3 ps=1.9 w=1.5 l=0.15
X102 VDDA.t440 bgr_0.1st_Vout_1.t15 bgr_0.V_TOP.t10 VDDA.t439 sky130_fd_pr__pfet_01v8 ad=0.2 pd=1.4 as=0.2 ps=1.4 w=1 l=0.2
X103 two_stage_opamp_dummy_magic_0.VOUT-.t34 two_stage_opamp_dummy_magic_0.cap_res_X.t123 sky130_fd_pr__cap_mim_m3_1 l=2 w=2
X104 bgr_0.V_TOP.t3 bgr_0.cap_res1.t0 GNDA.t96 sky130_fd_pr__res_high_po_0p35 l=2.05
X105 two_stage_opamp_dummy_magic_0.V_CMFB_S2.t12 two_stage_opamp_dummy_magic_0.X.t30 VDDA.t102 GNDA.t86 sky130_fd_pr__nfet_01v8 ad=0.6 pd=3.4 as=0.6 ps=3.4 w=3 l=0.15
X106 two_stage_opamp_dummy_magic_0.V_source.t36 two_stage_opamp_dummy_magic_0.V_tail_gate.t15 GNDA.t220 GNDA.t219 sky130_fd_pr__nfet_01v8 ad=0.5 pd=2.9 as=0.5 ps=2.9 w=2.5 l=0.15
X107 a_11220_17410.t0 GNDA.t90 GNDA.t23 sky130_fd_pr__res_xhigh_po_0p35 l=6
X108 two_stage_opamp_dummy_magic_0.V_CMFB_S2.t11 two_stage_opamp_dummy_magic_0.X.t31 VDDA.t58 GNDA.t50 sky130_fd_pr__nfet_01v8 ad=0.6 pd=3.4 as=0.6 ps=3.4 w=3 l=0.15
X109 two_stage_opamp_dummy_magic_0.V_err_mir_p.t3 two_stage_opamp_dummy_magic_0.V_err_gate.t18 VDDA.t93 VDDA.t92 sky130_fd_pr__pfet_01v8 ad=0.1 pd=0.9 as=0.1 ps=0.9 w=0.5 l=0.15
X110 two_stage_opamp_dummy_magic_0.VOUT+.t37 two_stage_opamp_dummy_magic_0.cap_res_Y.t120 sky130_fd_pr__cap_mim_m3_1 l=2 w=2
X111 two_stage_opamp_dummy_magic_0.Vb1.t0 bgr_0.PFET_GATE_10uA.t13 VDDA.t72 VDDA.t71 sky130_fd_pr__pfet_01v8 ad=0.2 pd=1.4 as=0.2 ps=1.4 w=1 l=0.15
X112 two_stage_opamp_dummy_magic_0.VOUT-.t35 two_stage_opamp_dummy_magic_0.cap_res_X.t122 sky130_fd_pr__cap_mim_m3_1 l=2 w=2
X113 bgr_0.PFET_GATE_10uA.t9 bgr_0.1st_Vout_2.t13 VDDA.t466 VDDA.t465 sky130_fd_pr__pfet_01v8 ad=0.2 pd=1.4 as=0.2 ps=1.4 w=1 l=0.2
X114 two_stage_opamp_dummy_magic_0.VOUT-.t36 two_stage_opamp_dummy_magic_0.cap_res_X.t121 sky130_fd_pr__cap_mim_m3_1 l=2 w=2
X115 GNDA.t138 two_stage_opamp_dummy_magic_0.V_tail_gate.t16 two_stage_opamp_dummy_magic_0.V_source.t35 GNDA.t137 sky130_fd_pr__nfet_01v8 ad=0.5 pd=2.9 as=0.5 ps=2.9 w=2.5 l=0.15
X116 two_stage_opamp_dummy_magic_0.VD3.t37 two_stage_opamp_dummy_magic_0.Vb3.t8 VDDA.t450 VDDA.t449 sky130_fd_pr__pfet_01v8 ad=0.7 pd=3.9 as=0.7 ps=3.9 w=3.5 l=0.2
X117 two_stage_opamp_dummy_magic_0.VOUT-.t37 two_stage_opamp_dummy_magic_0.cap_res_X.t120 sky130_fd_pr__cap_mim_m3_1 l=2 w=2
X118 two_stage_opamp_dummy_magic_0.VOUT-.t38 two_stage_opamp_dummy_magic_0.cap_res_X.t119 sky130_fd_pr__cap_mim_m3_1 l=2 w=2
X119 two_stage_opamp_dummy_magic_0.VOUT-.t39 two_stage_opamp_dummy_magic_0.cap_res_X.t118 sky130_fd_pr__cap_mim_m3_1 l=2 w=2
X120 two_stage_opamp_dummy_magic_0.VOUT+.t38 two_stage_opamp_dummy_magic_0.cap_res_Y.t119 sky130_fd_pr__cap_mim_m3_1 l=2 w=2
X121 two_stage_opamp_dummy_magic_0.VOUT+.t39 two_stage_opamp_dummy_magic_0.cap_res_Y.t118 sky130_fd_pr__cap_mim_m3_1 l=2 w=2
X122 VDDA.t218 bgr_0.V_mir1.t10 bgr_0.V_mir1.t11 VDDA.t217 sky130_fd_pr__pfet_01v8 ad=0.2 pd=1.4 as=0.2 ps=1.4 w=1 l=0.2
X123 two_stage_opamp_dummy_magic_0.V_CMFB_S4.t12 two_stage_opamp_dummy_magic_0.Y.t28 VDDA.t254 GNDA.t177 sky130_fd_pr__nfet_01v8 ad=0.6 pd=3.4 as=0.6 ps=3.4 w=3 l=0.15
X124 two_stage_opamp_dummy_magic_0.VOUT+.t40 two_stage_opamp_dummy_magic_0.cap_res_Y.t117 sky130_fd_pr__cap_mim_m3_1 l=2 w=2
X125 two_stage_opamp_dummy_magic_0.VOUT+.t41 two_stage_opamp_dummy_magic_0.cap_res_Y.t116 sky130_fd_pr__cap_mim_m3_1 l=2 w=2
X126 two_stage_opamp_dummy_magic_0.err_amp_mir.t10 two_stage_opamp_dummy_magic_0.err_amp_mir.t9 GNDA.t210 GNDA.t209 sky130_fd_pr__nfet_01v8 ad=0.1 pd=0.9 as=0.1 ps=0.9 w=0.5 l=0.15
X127 GNDA.t93 two_stage_opamp_dummy_magic_0.V_b_2nd_stage.t3 two_stage_opamp_dummy_magic_0.VOUT+.t4 GNDA.t92 sky130_fd_pr__nfet_01v8 ad=1.4 pd=7.4 as=1.4 ps=7.4 w=7 l=0.6
X128 two_stage_opamp_dummy_magic_0.VOUT+.t42 two_stage_opamp_dummy_magic_0.cap_res_Y.t115 sky130_fd_pr__cap_mim_m3_1 l=2 w=2
X129 bgr_0.1st_Vout_1.t16 bgr_0.cap_res1.t17 sky130_fd_pr__cap_mim_m3_1 l=2 w=2
X130 VDDA.t61 bgr_0.1st_Vout_2.t14 bgr_0.PFET_GATE_10uA.t2 VDDA.t60 sky130_fd_pr__pfet_01v8 ad=0.2 pd=1.4 as=0.2 ps=1.4 w=1 l=0.2
X131 two_stage_opamp_dummy_magic_0.VD4.t28 two_stage_opamp_dummy_magic_0.Vb3.t9 VDDA.t261 VDDA.t260 sky130_fd_pr__pfet_01v8 ad=0.7 pd=3.9 as=0.7 ps=3.9 w=3.5 l=0.2
X132 two_stage_opamp_dummy_magic_0.V_CMFB_S3.t12 two_stage_opamp_dummy_magic_0.Y.t29 GNDA.t178 VDDA.t255 sky130_fd_pr__pfet_01v8 ad=0.4 pd=2.4 as=0.4 ps=2.4 w=2 l=0.15
X133 bgr_0.V_TOP.t19 VDDA.t308 sky130_fd_pr__cap_mim_m3_1 l=2 w=2
X134 two_stage_opamp_dummy_magic_0.VD4.t16 two_stage_opamp_dummy_magic_0.Vb2.t13 two_stage_opamp_dummy_magic_0.Y.t3 two_stage_opamp_dummy_magic_0.VD4.t15 sky130_fd_pr__pfet_01v8 ad=0.7 pd=3.9 as=0.7 ps=3.9 w=3.5 l=0.2
X135 two_stage_opamp_dummy_magic_0.VOUT-.t40 two_stage_opamp_dummy_magic_0.cap_res_X.t117 sky130_fd_pr__cap_mim_m3_1 l=2 w=2
X136 bgr_0.1st_Vout_1.t17 bgr_0.cap_res1.t16 sky130_fd_pr__cap_mim_m3_1 l=2 w=2
X137 two_stage_opamp_dummy_magic_0.VD1.t19 two_stage_opamp_dummy_magic_0.Vb1.t8 two_stage_opamp_dummy_magic_0.X.t17 GNDA.t155 sky130_fd_pr__nfet_01v8 ad=0.3 pd=1.9 as=0.3 ps=1.9 w=1.5 l=0.15
X138 two_stage_opamp_dummy_magic_0.VOUT-.t41 two_stage_opamp_dummy_magic_0.cap_res_X.t116 sky130_fd_pr__cap_mim_m3_1 l=2 w=2
X139 a_14640_5068.t0 two_stage_opamp_dummy_magic_0.V_CMFB_S1.t0 GNDA.t70 sky130_fd_pr__res_xhigh_po_0p35 l=1.75
X140 two_stage_opamp_dummy_magic_0.Y.t15 two_stage_opamp_dummy_magic_0.Vb1.t9 two_stage_opamp_dummy_magic_0.VD2.t11 GNDA.t141 sky130_fd_pr__nfet_01v8 ad=0.3 pd=1.9 as=0.3 ps=1.9 w=1.5 l=0.15
X141 two_stage_opamp_dummy_magic_0.Vb2.t9 GNDA.t292 GNDA.t294 GNDA.t293 sky130_fd_pr__nfet_01v8 ad=0.2 pd=1.4 as=0.4 ps=2.8 w=1 l=0.15
X142 two_stage_opamp_dummy_magic_0.VOUT-.t42 two_stage_opamp_dummy_magic_0.cap_res_X.t115 sky130_fd_pr__cap_mim_m3_1 l=2 w=2
X143 two_stage_opamp_dummy_magic_0.VOUT+.t43 two_stage_opamp_dummy_magic_0.cap_res_Y.t114 sky130_fd_pr__cap_mim_m3_1 l=2 w=2
X144 two_stage_opamp_dummy_magic_0.V_source.t6 VIN+.t0 two_stage_opamp_dummy_magic_0.VD2.t4 GNDA.t73 sky130_fd_pr__nfet_01v8 ad=0.3 pd=1.9 as=0.3 ps=1.9 w=1.5 l=0.15
X145 two_stage_opamp_dummy_magic_0.VOUT-.t43 two_stage_opamp_dummy_magic_0.cap_res_X.t114 sky130_fd_pr__cap_mim_m3_1 l=2 w=2
X146 VDDA.t132 bgr_0.V_mir2.t17 bgr_0.1st_Vout_2.t6 VDDA.t131 sky130_fd_pr__pfet_01v8 ad=0.2 pd=1.4 as=0.2 ps=1.4 w=1 l=0.2
X147 two_stage_opamp_dummy_magic_0.VOUT+.t44 two_stage_opamp_dummy_magic_0.cap_res_Y.t113 sky130_fd_pr__cap_mim_m3_1 l=2 w=2
X148 two_stage_opamp_dummy_magic_0.VOUT+.t45 two_stage_opamp_dummy_magic_0.cap_res_Y.t112 sky130_fd_pr__cap_mim_m3_1 l=2 w=2
X149 bgr_0.1st_Vout_1.t18 bgr_0.cap_res1.t15 sky130_fd_pr__cap_mim_m3_1 l=2 w=2
X150 a_13730_17020.t1 two_stage_opamp_dummy_magic_0.V_err_amp_ref.t0 GNDA.t3 sky130_fd_pr__res_xhigh_po_0p35 l=6.3
X151 GNDA.t104 two_stage_opamp_dummy_magic_0.Y.t30 two_stage_opamp_dummy_magic_0.V_CMFB_S3.t11 VDDA.t125 sky130_fd_pr__pfet_01v8 ad=0.4 pd=2.4 as=0.4 ps=2.4 w=2 l=0.15
X152 two_stage_opamp_dummy_magic_0.V_source.t0 VIN+.t1 two_stage_opamp_dummy_magic_0.VD2.t0 GNDA.t1 sky130_fd_pr__nfet_01v8 ad=0.3 pd=1.9 as=0.3 ps=1.9 w=1.5 l=0.15
X153 two_stage_opamp_dummy_magic_0.VOUT-.t44 two_stage_opamp_dummy_magic_0.cap_res_X.t113 sky130_fd_pr__cap_mim_m3_1 l=2 w=2
X154 bgr_0.V_CUR_REF_REG.t2 VDDA.t416 VDDA.t418 VDDA.t417 sky130_fd_pr__pfet_01v8 ad=0.2 pd=1.4 as=0.4 ps=2.8 w=1 l=0.15
X155 a_11220_17410.t1 a_12828_17530.t1 GNDA.t23 sky130_fd_pr__res_xhigh_po_0p35 l=6
X156 two_stage_opamp_dummy_magic_0.VOUT-.t45 two_stage_opamp_dummy_magic_0.cap_res_X.t112 sky130_fd_pr__cap_mim_m3_1 l=2 w=2
X157 VDDA.t127 two_stage_opamp_dummy_magic_0.Y.t31 two_stage_opamp_dummy_magic_0.VOUT+.t8 VDDA.t126 sky130_fd_pr__pfet_01v8 ad=1.2 pd=6.4 as=1.2 ps=6.4 w=6 l=0.15
X158 two_stage_opamp_dummy_magic_0.VOUT+.t46 two_stage_opamp_dummy_magic_0.cap_res_Y.t111 sky130_fd_pr__cap_mim_m3_1 l=2 w=2
X159 two_stage_opamp_dummy_magic_0.V_tail_gate.t6 bgr_0.PFET_GATE_10uA.t14 VDDA.t177 VDDA.t176 sky130_fd_pr__pfet_01v8 ad=0.2 pd=1.4 as=0.2 ps=1.4 w=1 l=0.15
X160 two_stage_opamp_dummy_magic_0.V_CMFB_S2.t10 two_stage_opamp_dummy_magic_0.X.t32 VDDA.t83 GNDA.t80 sky130_fd_pr__nfet_01v8 ad=0.6 pd=3.4 as=0.6 ps=3.4 w=3 l=0.15
X161 two_stage_opamp_dummy_magic_0.VOUT-.t46 two_stage_opamp_dummy_magic_0.cap_res_X.t111 sky130_fd_pr__cap_mim_m3_1 l=2 w=2
X162 two_stage_opamp_dummy_magic_0.VOUT-.t47 two_stage_opamp_dummy_magic_0.cap_res_X.t110 sky130_fd_pr__cap_mim_m3_1 l=2 w=2
X163 two_stage_opamp_dummy_magic_0.V_source.t39 two_stage_opamp_dummy_magic_0.Vb1.t3 two_stage_opamp_dummy_magic_0.Vb1.t4 GNDA.t97 sky130_fd_pr__nfet_01v8 ad=0.4 pd=2.8 as=0.4 ps=2.8 w=1 l=3.1
X164 two_stage_opamp_dummy_magic_0.V_source.t34 two_stage_opamp_dummy_magic_0.V_tail_gate.t17 GNDA.t77 GNDA.t76 sky130_fd_pr__nfet_01v8 ad=0.5 pd=2.9 as=0.5 ps=2.9 w=2.5 l=0.15
X165 VDDA.t216 bgr_0.PFET_GATE_10uA.t15 bgr_0.V_CUR_REF_REG.t1 VDDA.t215 sky130_fd_pr__pfet_01v8 ad=0.2 pd=1.4 as=0.2 ps=1.4 w=1 l=0.15
X166 two_stage_opamp_dummy_magic_0.VD3.t20 two_stage_opamp_dummy_magic_0.Vb3.t10 VDDA.t33 VDDA.t32 sky130_fd_pr__pfet_01v8 ad=0.7 pd=3.9 as=0.7 ps=3.9 w=3.5 l=0.2
X167 two_stage_opamp_dummy_magic_0.VOUT-.t48 two_stage_opamp_dummy_magic_0.cap_res_X.t109 sky130_fd_pr__cap_mim_m3_1 l=2 w=2
X168 bgr_0.PFET_GATE_10uA.t3 bgr_0.cap_res2.t20 GNDA.t96 sky130_fd_pr__res_high_po_0p35 l=2.05
X169 two_stage_opamp_dummy_magic_0.VD4.t14 two_stage_opamp_dummy_magic_0.Vb2.t14 two_stage_opamp_dummy_magic_0.Y.t4 two_stage_opamp_dummy_magic_0.VD4.t13 sky130_fd_pr__pfet_01v8 ad=0.7 pd=3.9 as=0.7 ps=3.9 w=3.5 l=0.2
X170 bgr_0.V_p_1.t9 bgr_0.Vin-.t8 bgr_0.V_mir1.t16 GNDA.t187 sky130_fd_pr__nfet_01v8 ad=0.1 pd=0.9 as=0.1 ps=0.9 w=0.5 l=0.2
X171 VDDA.t80 bgr_0.V_mir1.t8 bgr_0.V_mir1.t9 VDDA.t79 sky130_fd_pr__pfet_01v8 ad=0.2 pd=1.4 as=0.2 ps=1.4 w=1 l=0.2
X172 two_stage_opamp_dummy_magic_0.VOUT-.t49 two_stage_opamp_dummy_magic_0.cap_res_X.t108 sky130_fd_pr__cap_mim_m3_1 l=2 w=2
X173 two_stage_opamp_dummy_magic_0.VOUT-.t50 two_stage_opamp_dummy_magic_0.cap_res_X.t107 sky130_fd_pr__cap_mim_m3_1 l=2 w=2
X174 GNDA.t291 GNDA.t289 two_stage_opamp_dummy_magic_0.Y.t19 GNDA.t290 sky130_fd_pr__nfet_01v8 ad=0.6 pd=3.8 as=0.3 ps=1.9 w=1.5 l=0.15
X175 bgr_0.1st_Vout_2.t15 bgr_0.cap_res2.t17 sky130_fd_pr__cap_mim_m3_1 l=2 w=2
X176 two_stage_opamp_dummy_magic_0.VOUT+.t47 two_stage_opamp_dummy_magic_0.cap_res_Y.t110 sky130_fd_pr__cap_mim_m3_1 l=2 w=2
X177 two_stage_opamp_dummy_magic_0.VOUT+.t48 two_stage_opamp_dummy_magic_0.cap_res_Y.t109 sky130_fd_pr__cap_mim_m3_1 l=2 w=2
X178 VDDA.t438 bgr_0.1st_Vout_1.t19 bgr_0.V_TOP.t9 VDDA.t437 sky130_fd_pr__pfet_01v8 ad=0.2 pd=1.4 as=0.2 ps=1.4 w=1 l=0.2
X179 VDDA.t307 bgr_0.V_TOP.t20 two_stage_opamp_dummy_magic_0.V_err_amp_ref.t4 VDDA.t306 sky130_fd_pr__pfet_01v8 ad=0.6 pd=3.4 as=0.6 ps=3.4 w=3 l=0.5
X180 two_stage_opamp_dummy_magic_0.VOUT+.t49 two_stage_opamp_dummy_magic_0.cap_res_Y.t108 sky130_fd_pr__cap_mim_m3_1 l=2 w=2
X181 GNDA.t218 two_stage_opamp_dummy_magic_0.V_tail_gate.t18 two_stage_opamp_dummy_magic_0.V_source.t33 GNDA.t217 sky130_fd_pr__nfet_01v8 ad=0.5 pd=2.9 as=0.5 ps=2.9 w=2.5 l=0.15
X182 two_stage_opamp_dummy_magic_0.VOUT+.t50 two_stage_opamp_dummy_magic_0.cap_res_Y.t107 sky130_fd_pr__cap_mim_m3_1 l=2 w=2
X183 bgr_0.V_p_2.t10 bgr_0.V_CUR_REF_REG.t3 bgr_0.1st_Vout_2.t10 GNDA.t320 sky130_fd_pr__nfet_01v8 ad=0.1 pd=0.9 as=0.1 ps=0.9 w=0.5 l=0.2
X184 two_stage_opamp_dummy_magic_0.VOUT+.t51 two_stage_opamp_dummy_magic_0.cap_res_Y.t106 sky130_fd_pr__cap_mim_m3_1 l=2 w=2
X185 two_stage_opamp_dummy_magic_0.VOUT-.t51 two_stage_opamp_dummy_magic_0.cap_res_X.t106 sky130_fd_pr__cap_mim_m3_1 l=2 w=2
X186 two_stage_opamp_dummy_magic_0.VOUT+.t2 two_stage_opamp_dummy_magic_0.Y.t32 VDDA.t20 VDDA.t19 sky130_fd_pr__pfet_01v8 ad=1.2 pd=6.4 as=1.2 ps=6.4 w=6 l=0.15
X187 two_stage_opamp_dummy_magic_0.VOUT-.t52 two_stage_opamp_dummy_magic_0.cap_res_X.t105 sky130_fd_pr__cap_mim_m3_1 l=2 w=2
X188 bgr_0.V_p_1.t8 bgr_0.Vin-.t9 bgr_0.V_mir1.t15 GNDA.t186 sky130_fd_pr__nfet_01v8 ad=0.1 pd=0.9 as=0.1 ps=0.9 w=0.5 l=0.2
X189 bgr_0.1st_Vout_2.t16 bgr_0.cap_res2.t16 sky130_fd_pr__cap_mim_m3_1 l=2 w=2
X190 GNDA.t32 two_stage_opamp_dummy_magic_0.V_tail_gate.t19 two_stage_opamp_dummy_magic_0.V_source.t32 GNDA.t31 sky130_fd_pr__nfet_01v8 ad=0.5 pd=2.9 as=0.5 ps=2.9 w=2.5 l=0.15
X191 bgr_0.V_TOP.t4 VDDA.t413 VDDA.t415 VDDA.t414 sky130_fd_pr__pfet_01v8 ad=0.2 pd=1.4 as=0.4 ps=2.8 w=1 l=0.15
X192 two_stage_opamp_dummy_magic_0.VOUT+.t52 two_stage_opamp_dummy_magic_0.cap_res_Y.t105 sky130_fd_pr__cap_mim_m3_1 l=2 w=2
X193 bgr_0.Vin-.t7 bgr_0.START_UP.t6 bgr_0.V_TOP.t13 VDDA.t455 sky130_fd_pr__pfet_01v8 ad=0.2 pd=1.4 as=0.2 ps=1.4 w=1 l=0.15
X194 VDDA.t412 VDDA.t410 two_stage_opamp_dummy_magic_0.V_err_p.t21 VDDA.t411 sky130_fd_pr__pfet_01v8 ad=0.2 pd=1.8 as=0.1 ps=0.9 w=0.5 l=0.15
X195 two_stage_opamp_dummy_magic_0.VD1.t18 two_stage_opamp_dummy_magic_0.Vb1.t10 two_stage_opamp_dummy_magic_0.X.t10 GNDA.t26 sky130_fd_pr__nfet_01v8 ad=0.3 pd=1.9 as=0.3 ps=1.9 w=1.5 l=0.15
X196 two_stage_opamp_dummy_magic_0.VOUT+.t53 two_stage_opamp_dummy_magic_0.cap_res_Y.t104 sky130_fd_pr__cap_mim_m3_1 l=2 w=2
X197 two_stage_opamp_dummy_magic_0.VOUT-.t53 two_stage_opamp_dummy_magic_0.cap_res_X.t104 sky130_fd_pr__cap_mim_m3_1 l=2 w=2
X198 bgr_0.1st_Vout_1.t20 bgr_0.cap_res1.t14 sky130_fd_pr__cap_mim_m3_1 l=2 w=2
X199 bgr_0.V_TOP.t21 VDDA.t297 sky130_fd_pr__cap_mim_m3_1 l=2 w=2
X200 two_stage_opamp_dummy_magic_0.err_amp_out.t4 two_stage_opamp_dummy_magic_0.V_err_amp_ref.t9 two_stage_opamp_dummy_magic_0.V_err_p.t9 VDDA.t263 sky130_fd_pr__pfet_01v8 ad=0.1 pd=0.9 as=0.1 ps=0.9 w=0.5 l=0.15
X201 two_stage_opamp_dummy_magic_0.VOUT+.t54 two_stage_opamp_dummy_magic_0.cap_res_Y.t103 sky130_fd_pr__cap_mim_m3_1 l=2 w=2
X202 two_stage_opamp_dummy_magic_0.VOUT+.t55 two_stage_opamp_dummy_magic_0.cap_res_Y.t102 sky130_fd_pr__cap_mim_m3_1 l=2 w=2
X203 two_stage_opamp_dummy_magic_0.V_b_2nd_stage.t1 a_14240_2076.t1 GNDA.t154 sky130_fd_pr__res_xhigh_po_0p35 l=2.63
X204 VDDA.t70 two_stage_opamp_dummy_magic_0.Vb3.t11 two_stage_opamp_dummy_magic_0.VD3.t21 VDDA.t69 sky130_fd_pr__pfet_01v8 ad=0.7 pd=3.9 as=0.7 ps=3.9 w=3.5 l=0.2
X205 GNDA.t127 two_stage_opamp_dummy_magic_0.X.t33 two_stage_opamp_dummy_magic_0.V_CMFB_S1.t13 VDDA.t182 sky130_fd_pr__pfet_01v8 ad=0.4 pd=2.4 as=0.4 ps=2.4 w=2 l=0.15
X206 two_stage_opamp_dummy_magic_0.VOUT+.t56 two_stage_opamp_dummy_magic_0.cap_res_Y.t101 sky130_fd_pr__cap_mim_m3_1 l=2 w=2
X207 two_stage_opamp_dummy_magic_0.V_source.t31 two_stage_opamp_dummy_magic_0.V_tail_gate.t20 GNDA.t82 GNDA.t81 sky130_fd_pr__nfet_01v8 ad=0.5 pd=2.9 as=0.5 ps=2.9 w=2.5 l=0.15
X208 a_13730_17020.t0 GNDA.t4 GNDA.t3 sky130_fd_pr__res_xhigh_po_0p35 l=6.3
X209 bgr_0.1st_Vout_1.t21 bgr_0.cap_res1.t13 sky130_fd_pr__cap_mim_m3_1 l=2 w=2
X210 bgr_0.V_TOP.t22 VDDA.t296 sky130_fd_pr__cap_mim_m3_1 l=2 w=2
X211 two_stage_opamp_dummy_magic_0.VD4.t37 two_stage_opamp_dummy_magic_0.VD4.t35 two_stage_opamp_dummy_magic_0.Y.t7 two_stage_opamp_dummy_magic_0.VD4.t36 sky130_fd_pr__pfet_01v8 ad=1.4 pd=7.8 as=0.7 ps=3.9 w=3.5 l=0.2
X212 two_stage_opamp_dummy_magic_0.V_err_amp_ref.t6 VDDA.t407 VDDA.t409 VDDA.t408 sky130_fd_pr__pfet_01v8 ad=0.6 pd=3.4 as=1.2 ps=6.8 w=3 l=0.5
X213 a_11220_17290.t1 a_12828_17650.t1 GNDA.t23 sky130_fd_pr__res_xhigh_po_0p35 l=6
X214 VDDA.t229 two_stage_opamp_dummy_magic_0.Vb3.t12 two_stage_opamp_dummy_magic_0.VD4.t25 VDDA.t228 sky130_fd_pr__pfet_01v8 ad=0.7 pd=3.9 as=0.7 ps=3.9 w=3.5 l=0.2
X215 two_stage_opamp_dummy_magic_0.VOUT-.t54 two_stage_opamp_dummy_magic_0.cap_res_X.t103 sky130_fd_pr__cap_mim_m3_1 l=2 w=2
X216 two_stage_opamp_dummy_magic_0.VOUT-.t55 two_stage_opamp_dummy_magic_0.cap_res_X.t102 sky130_fd_pr__cap_mim_m3_1 l=2 w=2
X217 two_stage_opamp_dummy_magic_0.VOUT-.t56 two_stage_opamp_dummy_magic_0.cap_res_X.t101 sky130_fd_pr__cap_mim_m3_1 l=2 w=2