* NGSPICE file created from bgr_opamp_dummy_magic_17.ext - technology: sky130A

.subckt sky130_fd_pr__rf_pnp_05v5_W3p40L3p40 Emitter Collector Base m=1
X0 Collector Base Emitter sky130_fd_pr__pnp_05v5_W3p40L3p40
**devattr s=462400,2720
.ends

.subckt bgr_11 ERR_AMP_REF V_CMFB_S3 VB1_CUR_BIAS TAIL_CUR_MIR_BIAS V_CMFB_S1 ERR_AMP_CUR_BIAS
+ VB3_CUR_BIAS V_CMFB_S4 V_CMFB_S2 VB2_CUR_BIAS a_32560_n7778# w_32750_1090# NFET_GATE_10uA
+ a_37640_n2280# m1_35910_n8890# sky130_fd_pr__rf_pnp_05v5_W3p40L3p40_8/Base w_32720_n90#
+ w_33500_2220# a_35550_n8610# a_34140_n1820#
Xsky130_fd_pr__rf_pnp_05v5_W3p40L3p40_8 sky130_fd_pr__rf_pnp_05v5_W3p40L3p40_8/Emitter
+ sky130_fd_pr__rf_pnp_05v5_W3p40L3p40_8/Base sky130_fd_pr__rf_pnp_05v5_W3p40L3p40_8/Base
+ sky130_fd_pr__rf_pnp_05v5_W3p40L3p40
+ m=1
Xsky130_fd_pr__rf_pnp_05v5_W3p40L3p40_20 sky130_fd_pr__rf_pnp_05v5_W3p40L3p40_8/Emitter
+ sky130_fd_pr__rf_pnp_05v5_W3p40L3p40_8/Base sky130_fd_pr__rf_pnp_05v5_W3p40L3p40_8/Base
+ sky130_fd_pr__rf_pnp_05v5_W3p40L3p40
+ m=1
Xsky130_fd_pr__rf_pnp_05v5_W3p40L3p40_21 sky130_fd_pr__rf_pnp_05v5_W3p40L3p40_8/Emitter
+ sky130_fd_pr__rf_pnp_05v5_W3p40L3p40_8/Base sky130_fd_pr__rf_pnp_05v5_W3p40L3p40_8/Base
+ sky130_fd_pr__rf_pnp_05v5_W3p40L3p40
+ m=1
Xsky130_fd_pr__rf_pnp_05v5_W3p40L3p40_22 sky130_fd_pr__rf_pnp_05v5_W3p40L3p40_8/Emitter
+ sky130_fd_pr__rf_pnp_05v5_W3p40L3p40_8/Base sky130_fd_pr__rf_pnp_05v5_W3p40L3p40_8/Base
+ sky130_fd_pr__rf_pnp_05v5_W3p40L3p40
+ m=1
Xsky130_fd_pr__rf_pnp_05v5_W3p40L3p40_23 Vin- sky130_fd_pr__rf_pnp_05v5_W3p40L3p40_8/Base
+ sky130_fd_pr__rf_pnp_05v5_W3p40L3p40_8/Base sky130_fd_pr__rf_pnp_05v5_W3p40L3p40 m=1
Xsky130_fd_pr__rf_pnp_05v5_W3p40L3p40_24 sky130_fd_pr__rf_pnp_05v5_W3p40L3p40_8/Emitter
+ sky130_fd_pr__rf_pnp_05v5_W3p40L3p40_8/Base sky130_fd_pr__rf_pnp_05v5_W3p40L3p40_8/Base
+ sky130_fd_pr__rf_pnp_05v5_W3p40L3p40
+ m=1
Xsky130_fd_pr__rf_pnp_05v5_W3p40L3p40_25 sky130_fd_pr__rf_pnp_05v5_W3p40L3p40_8/Emitter
+ sky130_fd_pr__rf_pnp_05v5_W3p40L3p40_8/Base sky130_fd_pr__rf_pnp_05v5_W3p40L3p40_8/Base
+ sky130_fd_pr__rf_pnp_05v5_W3p40L3p40
+ m=1
Xsky130_fd_pr__rf_pnp_05v5_W3p40L3p40_18 sky130_fd_pr__rf_pnp_05v5_W3p40L3p40_8/Emitter
+ sky130_fd_pr__rf_pnp_05v5_W3p40L3p40_8/Base sky130_fd_pr__rf_pnp_05v5_W3p40L3p40_8/Base
+ sky130_fd_pr__rf_pnp_05v5_W3p40L3p40
+ m=1
Xsky130_fd_pr__rf_pnp_05v5_W3p40L3p40_19 sky130_fd_pr__rf_pnp_05v5_W3p40L3p40_8/Emitter
+ sky130_fd_pr__rf_pnp_05v5_W3p40L3p40_8/Base sky130_fd_pr__rf_pnp_05v5_W3p40L3p40_8/Base
+ sky130_fd_pr__rf_pnp_05v5_W3p40L3p40
+ m=1
X0 1st_Vout_2 cap_res2 sky130_fd_pr__cap_mim_m3_1 l=2 w=2
X1 VB3_CUR_BIAS NFET_GATE_10uA sky130_fd_pr__rf_pnp_05v5_W3p40L3p40_8/Base sky130_fd_pr__rf_pnp_05v5_W3p40L3p40_8/Base sky130_fd_pr__nfet_01v8 ad=0.2 pd=1.4 as=0.2 ps=1.4 w=1 l=0.15
X2 sky130_fd_pr__rf_pnp_05v5_W3p40L3p40_8/Base NFET_GATE_10uA VB3_CUR_BIAS sky130_fd_pr__rf_pnp_05v5_W3p40L3p40_8/Base sky130_fd_pr__nfet_01v8 ad=0.2 pd=1.4 as=0.2 ps=1.4 w=1 l=0.15
X3 1st_Vout_1 Vin+ V_p_1 sky130_fd_pr__rf_pnp_05v5_W3p40L3p40_8/Base sky130_fd_pr__nfet_01v8 ad=1 pd=5.8 as=0.5 ps=2.9 w=2.5 l=0.2
X4 V_mir2 V_mir2 w_32720_n90# w_32720_n90# sky130_fd_pr__pfet_01v8 ad=0.2 pd=1.4 as=0.2 ps=1.4 w=1 l=0.2
X5 sky130_fd_pr__rf_pnp_05v5_W3p40L3p40_8/Base NFET_GATE_10uA NFET_GATE_10uA sky130_fd_pr__rf_pnp_05v5_W3p40L3p40_8/Base sky130_fd_pr__nfet_01v8 ad=0.2 pd=1.4 as=0.2 ps=1.4 w=1 l=0.15
X6 a_38570_n6514# a_38690_n7778# sky130_fd_pr__rf_pnp_05v5_W3p40L3p40_8/Base sky130_fd_pr__res_xhigh_po_0p35 l=4.28
X7 START_UP_NFET1 START_UP START_UP sky130_fd_pr__rf_pnp_05v5_W3p40L3p40_8/Base sky130_fd_pr__nfet_01v8 ad=0.2 pd=1.4 as=0.4 ps=2.8 w=1 l=10
X8 1st_Vout_1 cap_res1 sky130_fd_pr__cap_mim_m3_1 l=2 w=2
X9 sky130_fd_pr__rf_pnp_05v5_W3p40L3p40_8/Emitter Vin+ sky130_fd_pr__rf_pnp_05v5_W3p40L3p40_8/Base sky130_fd_pr__res_xhigh_po_0p35 l=2.3
X10 VB2_CUR_BIAS sky130_fd_pr__rf_pnp_05v5_W3p40L3p40_8/Base sky130_fd_pr__rf_pnp_05v5_W3p40L3p40_8/Base sky130_fd_pr__rf_pnp_05v5_W3p40L3p40_8/Base sky130_fd_pr__nfet_01v8 ad=0.2 pd=1.4 as=0.4 ps=2.8 w=1 l=0.15
X11 1st_Vout_1 cap_res1 sky130_fd_pr__cap_mim_m3_1 l=2 w=2
X12 sky130_fd_pr__rf_pnp_05v5_W3p40L3p40_8/Base sky130_fd_pr__rf_pnp_05v5_W3p40L3p40_8/Base V_CMFB_S2 sky130_fd_pr__rf_pnp_05v5_W3p40L3p40_8/Base sky130_fd_pr__nfet_01v8 ad=0.4 pd=2.8 as=0.2 ps=1.4 w=1 l=0.15
X13 V_CMFB_S2 NFET_GATE_10uA sky130_fd_pr__rf_pnp_05v5_W3p40L3p40_8/Base sky130_fd_pr__rf_pnp_05v5_W3p40L3p40_8/Base sky130_fd_pr__nfet_01v8 ad=0.2 pd=1.4 as=0.2 ps=1.4 w=1 l=0.15
X14 sky130_fd_pr__rf_pnp_05v5_W3p40L3p40_8/Base NFET_GATE_10uA V_CMFB_S2 sky130_fd_pr__rf_pnp_05v5_W3p40L3p40_8/Base sky130_fd_pr__nfet_01v8 ad=0.2 pd=1.4 as=0.2 ps=1.4 w=1 l=0.15
X15 w_33500_2220# w_33500_2220# V_CMFB_S1 w_33500_2220# sky130_fd_pr__pfet_01v8 ad=0.4 pd=2.8 as=0.2 ps=1.4 w=1 l=0.15
X16 V_TOP START_UP Vin- w_32750_1090# sky130_fd_pr__pfet_01v8 ad=0.2 pd=1.4 as=0.2 ps=1.4 w=1 l=0.15
X17 V_CMFB_S3 w_33500_2220# w_33500_2220# w_33500_2220# sky130_fd_pr__pfet_01v8 ad=0.2 pd=1.4 as=0.4 ps=2.8 w=1 l=0.15
X18 1st_Vout_1 cap_res1 sky130_fd_pr__cap_mim_m3_1 l=2 w=2
X19 1st_Vout_2 V_mir2 w_32720_n90# w_32720_n90# sky130_fd_pr__pfet_01v8 ad=0.2 pd=1.4 as=0.2 ps=1.4 w=1 l=0.2
X20 1st_Vout_2 cap_res2 sky130_fd_pr__cap_mim_m3_1 l=2 w=2
X21 V_CUR_REF_REG a_32320_n7778# sky130_fd_pr__rf_pnp_05v5_W3p40L3p40_8/Base sky130_fd_pr__res_xhigh_po_0p35 l=4
X22 1st_Vout_2 cap_res2 sky130_fd_pr__cap_mim_m3_1 l=2 w=2
X23 1st_Vout_2 cap_res2 sky130_fd_pr__cap_mim_m3_1 l=2 w=2
X24 w_32750_1090# V_TOP ERR_AMP_REF w_32750_1090# sky130_fd_pr__pfet_01v8 ad=0.6 pd=3.4 as=0.6 ps=3.4 w=3 l=0.5
X25 1st_Vout_2 cap_res2 sky130_fd_pr__cap_mim_m3_1 l=2 w=2
X26 w_33500_2220# PFET_GATE_10uA V_CMFB_S1 w_33500_2220# sky130_fd_pr__pfet_01v8 ad=0.2 pd=1.4 as=0.2 ps=1.4 w=1 l=0.15
X27 1st_Vout_2 cap_res2 sky130_fd_pr__cap_mim_m3_1 l=2 w=2
X28 1st_Vout_1 cap_res1 sky130_fd_pr__cap_mim_m3_1 l=2 w=2
X29 1st_Vout_2 cap_res2 sky130_fd_pr__cap_mim_m3_1 l=2 w=2
X30 1st_Vout_2 cap_res2 sky130_fd_pr__cap_mim_m3_1 l=2 w=2
X31 1st_Vout_1 cap_res1 sky130_fd_pr__cap_mim_m3_1 l=2 w=2
X32 w_32720_n90# V_mir1 V_mir1 w_32720_n90# sky130_fd_pr__pfet_01v8 ad=0.2 pd=1.4 as=0.2 ps=1.4 w=1 l=0.2
X33 Vin+ V_TOP w_32750_1090# w_32750_1090# sky130_fd_pr__pfet_01v8 ad=0.6 pd=3.4 as=0.6 ps=3.4 w=3 l=0.5
X34 1st_Vout_1 cap_res1 sky130_fd_pr__cap_mim_m3_1 l=2 w=2
X35 V_TOP m1_35910_n8890# sky130_fd_pr__cap_mim_m3_1 l=2 w=2
X36 1st_Vout_1 cap_res1 sky130_fd_pr__cap_mim_m3_1 l=2 w=2
X37 1st_Vout_1 cap_res1 sky130_fd_pr__cap_mim_m3_1 l=2 w=2
X38 TAIL_CUR_MIR_BIAS PFET_GATE_10uA w_33500_2220# w_33500_2220# sky130_fd_pr__pfet_01v8 ad=0.2 pd=1.4 as=0.2 ps=1.4 w=1 l=0.15
X39 w_32720_n90# V_mir2 V_mir2 w_32720_n90# sky130_fd_pr__pfet_01v8 ad=0.2 pd=1.4 as=0.2 ps=1.4 w=1 l=0.2
X40 V_TOP m1_35910_n8890# sky130_fd_pr__cap_mim_m3_1 l=2 w=2
X41 ERR_AMP_REF w_32750_1090# w_32750_1090# w_32750_1090# sky130_fd_pr__pfet_01v8 ad=0.6 pd=3.4 as=1.2 ps=6.8 w=3 l=0.5
X42 1st_Vout_1 V_mir1 w_32720_n90# w_32720_n90# sky130_fd_pr__pfet_01v8 ad=0.2 pd=1.4 as=0.2 ps=1.4 w=1 l=0.2
X43 V_TOP m1_35910_n8890# sky130_fd_pr__cap_mim_m3_1 l=2 w=2
X44 1st_Vout_2 cap_res2 sky130_fd_pr__cap_mim_m3_1 l=2 w=2
X45 V_CMFB_S3 PFET_GATE_10uA w_33500_2220# w_33500_2220# sky130_fd_pr__pfet_01v8 ad=0.2 pd=1.4 as=0.2 ps=1.4 w=1 l=0.15
X46 w_32750_1090# V_TOP Vin+ w_32750_1090# sky130_fd_pr__pfet_01v8 ad=0.6 pd=3.4 as=0.6 ps=3.4 w=3 l=0.5
X47 V_TOP m1_35910_n8890# sky130_fd_pr__cap_mim_m3_1 l=2 w=2
X48 w_33500_2220# PFET_GATE_10uA NFET_GATE_10uA w_33500_2220# sky130_fd_pr__pfet_01v8 ad=0.2 pd=1.4 as=0.2 ps=1.4 w=1 l=0.15
X49 PFET_GATE_10uA 1st_Vout_2 w_32720_n90# w_32720_n90# sky130_fd_pr__pfet_01v8 ad=0.2 pd=1.4 as=0.2 ps=1.4 w=1 l=0.2
X50 VB2_CUR_BIAS NFET_GATE_10uA sky130_fd_pr__rf_pnp_05v5_W3p40L3p40_8/Base sky130_fd_pr__rf_pnp_05v5_W3p40L3p40_8/Base sky130_fd_pr__nfet_01v8 ad=0.2 pd=1.4 as=0.2 ps=1.4 w=1 l=0.15
X51 VB2_CUR_BIAS NFET_GATE_10uA sky130_fd_pr__rf_pnp_05v5_W3p40L3p40_8/Base sky130_fd_pr__rf_pnp_05v5_W3p40L3p40_8/Base sky130_fd_pr__nfet_01v8 ad=0.2 pd=1.4 as=0.2 ps=1.4 w=1 l=0.15
X52 w_32720_n90# V_mir2 1st_Vout_2 w_32720_n90# sky130_fd_pr__pfet_01v8 ad=0.2 pd=1.4 as=0.2 ps=1.4 w=1 l=0.2
X53 sky130_fd_pr__rf_pnp_05v5_W3p40L3p40_8/Base NFET_GATE_10uA VB2_CUR_BIAS sky130_fd_pr__rf_pnp_05v5_W3p40L3p40_8/Base sky130_fd_pr__nfet_01v8 ad=0.2 pd=1.4 as=0.2 ps=1.4 w=1 l=0.15
X54 TAIL_CUR_MIR_BIAS PFET_GATE_10uA w_33500_2220# w_33500_2220# sky130_fd_pr__pfet_01v8 ad=0.2 pd=1.4 as=0.2 ps=1.4 w=1 l=0.15
X55 w_32720_n90# 1st_Vout_2 PFET_GATE_10uA w_32720_n90# sky130_fd_pr__pfet_01v8 ad=0.2 pd=1.4 as=0.2 ps=1.4 w=1 l=0.2
X56 V_CMFB_S3 PFET_GATE_10uA w_33500_2220# w_33500_2220# sky130_fd_pr__pfet_01v8 ad=0.2 pd=1.4 as=0.2 ps=1.4 w=1 l=0.15
X57 sky130_fd_pr__rf_pnp_05v5_W3p40L3p40_8/Base NFET_GATE_10uA VB3_CUR_BIAS sky130_fd_pr__rf_pnp_05v5_W3p40L3p40_8/Base sky130_fd_pr__nfet_01v8 ad=0.2 pd=1.4 as=0.2 ps=1.4 w=1 l=0.15
X58 VB3_CUR_BIAS sky130_fd_pr__rf_pnp_05v5_W3p40L3p40_8/Base sky130_fd_pr__rf_pnp_05v5_W3p40L3p40_8/Base sky130_fd_pr__rf_pnp_05v5_W3p40L3p40_8/Base sky130_fd_pr__nfet_01v8 ad=0.2 pd=1.4 as=0.4 ps=2.8 w=1 l=0.15
X59 w_32720_n90# w_32720_n90# V_TOP w_32720_n90# sky130_fd_pr__pfet_01v8 ad=0.4 pd=2.8 as=0.2 ps=1.4 w=1 l=0.2
X60 sky130_fd_pr__rf_pnp_05v5_W3p40L3p40_8/Base NFET_GATE_10uA ERR_AMP_CUR_BIAS sky130_fd_pr__rf_pnp_05v5_W3p40L3p40_8/Base sky130_fd_pr__nfet_01v8 ad=0.2 pd=1.4 as=0.2 ps=1.4 w=1 l=0.15
X61 V_CMFB_S1 PFET_GATE_10uA w_33500_2220# w_33500_2220# sky130_fd_pr__pfet_01v8 ad=0.2 pd=1.4 as=0.2 ps=1.4 w=1 l=0.15
X62 NFET_GATE_10uA sky130_fd_pr__rf_pnp_05v5_W3p40L3p40_8/Base sky130_fd_pr__rf_pnp_05v5_W3p40L3p40_8/Base sky130_fd_pr__rf_pnp_05v5_W3p40L3p40_8/Base sky130_fd_pr__nfet_01v8 ad=0.2 pd=1.4 as=0.4 ps=2.8 w=1 l=0.15
X63 sky130_fd_pr__rf_pnp_05v5_W3p40L3p40_8/Base sky130_fd_pr__rf_pnp_05v5_W3p40L3p40_8/Base sky130_fd_pr__rf_pnp_05v5_W3p40L3p40_8/Base sky130_fd_pr__rf_pnp_05v5_W3p40L3p40_8/Base sky130_fd_pr__nfet_01v8 ad=0.2 pd=1.4 as=67.89203 ps=388.905 w=1 l=0.15
X64 Vin+ a_38040_n7928# sky130_fd_pr__rf_pnp_05v5_W3p40L3p40_8/Base sky130_fd_pr__res_xhigh_po_0p35 l=6
X65 1st_Vout_1 V_mir1 w_32720_n90# w_32720_n90# sky130_fd_pr__pfet_01v8 ad=0.2 pd=1.4 as=0.2 ps=1.4 w=1 l=0.2
X66 sky130_fd_pr__rf_pnp_05v5_W3p40L3p40_8/Base START_UP_NFET1 START_UP_NFET1 sky130_fd_pr__rf_pnp_05v5_W3p40L3p40_8/Base sky130_fd_pr__nfet_01v8 ad=0.4 pd=2.8 as=0.2 ps=1.4 w=1 l=10
X67 V_p_2 V_CUR_REF_REG 1st_Vout_2 sky130_fd_pr__rf_pnp_05v5_W3p40L3p40_8/Base sky130_fd_pr__nfet_01v8 ad=0.5 pd=2.9 as=1 ps=5.8 w=2.5 l=0.2
X68 sky130_fd_pr__rf_pnp_05v5_W3p40L3p40_8/Base NFET_GATE_10uA VB2_CUR_BIAS sky130_fd_pr__rf_pnp_05v5_W3p40L3p40_8/Base sky130_fd_pr__nfet_01v8 ad=0.2 pd=1.4 as=0.2 ps=1.4 w=1 l=0.15
X69 TAIL_CUR_MIR_BIAS PFET_GATE_10uA w_33500_2220# w_33500_2220# sky130_fd_pr__pfet_01v8 ad=0.2 pd=1.4 as=0.2 ps=1.4 w=1 l=0.15
X70 V_mir1 V_mir1 w_32720_n90# w_32720_n90# sky130_fd_pr__pfet_01v8 ad=0.2 pd=1.4 as=0.2 ps=1.4 w=1 l=0.2
X71 V_TOP m1_35910_n8890# sky130_fd_pr__cap_mim_m3_1 l=2 w=2
X72 V_CMFB_S2 NFET_GATE_10uA sky130_fd_pr__rf_pnp_05v5_W3p40L3p40_8/Base sky130_fd_pr__rf_pnp_05v5_W3p40L3p40_8/Base sky130_fd_pr__nfet_01v8 ad=0.2 pd=1.4 as=0.2 ps=1.4 w=1 l=0.15
X73 VB1_CUR_BIAS w_32750_1090# w_32750_1090# w_32750_1090# sky130_fd_pr__pfet_01v8 ad=0.4 pd=2.4 as=0.8 ps=4.8 w=2 l=0.15
X74 w_32750_1090# w_32750_1090# w_32750_1090# w_32750_1090# sky130_fd_pr__pfet_01v8 ad=0.4 pd=2.4 as=15.25 ps=88.1 w=2 l=0.15
X75 w_32720_n90# 1st_Vout_1 V_TOP w_32720_n90# sky130_fd_pr__pfet_01v8 ad=0.2 pd=1.4 as=0.2 ps=1.4 w=1 l=0.2
X76 PFET_GATE_10uA 1st_Vout_2 w_32720_n90# w_32720_n90# sky130_fd_pr__pfet_01v8 ad=0.2 pd=1.4 as=0.2 ps=1.4 w=1 l=0.2
X77 V_p_2 a_33140_n1850# sky130_fd_pr__rf_pnp_05v5_W3p40L3p40_8/Base sky130_fd_pr__rf_pnp_05v5_W3p40L3p40_8/Base sky130_fd_pr__nfet_01v8 ad=1 pd=5.8 as=1 ps=5.8 w=2.5 l=5
X78 V_TOP m1_35910_n8890# sky130_fd_pr__cap_mim_m3_1 l=2 w=2
X79 w_32720_n90# V_mir1 1st_Vout_1 w_32720_n90# sky130_fd_pr__pfet_01v8 ad=0.2 pd=1.4 as=0.2 ps=1.4 w=1 l=0.2
X80 1st_Vout_2 cap_res2 sky130_fd_pr__cap_mim_m3_1 l=2 w=2
X81 1st_Vout_2 cap_res2 sky130_fd_pr__cap_mim_m3_1 l=2 w=2
X82 V_CMFB_S1 w_33500_2220# w_33500_2220# w_33500_2220# sky130_fd_pr__pfet_01v8 ad=0.2 pd=1.4 as=0.4 ps=2.8 w=1 l=0.15
X83 w_32720_n90# V_mir2 1st_Vout_2 w_32720_n90# sky130_fd_pr__pfet_01v8 ad=0.2 pd=1.4 as=0.2 ps=1.4 w=1 l=0.2
X84 1st_Vout_2 cap_res2 sky130_fd_pr__cap_mim_m3_1 l=2 w=2
X85 w_32720_n90# 1st_Vout_2 PFET_GATE_10uA w_32720_n90# sky130_fd_pr__pfet_01v8 ad=0.2 pd=1.4 as=0.2 ps=1.4 w=1 l=0.2
X86 1st_Vout_1 cap_res1 sky130_fd_pr__cap_mim_m3_1 l=2 w=2
X87 NFET_GATE_10uA w_33500_2220# w_33500_2220# w_33500_2220# sky130_fd_pr__pfet_01v8 ad=0.2 pd=1.4 as=0.4 ps=2.8 w=1 l=0.15
X88 TAIL_CUR_MIR_BIAS PFET_GATE_10uA w_33500_2220# w_33500_2220# sky130_fd_pr__pfet_01v8 ad=0.2 pd=1.4 as=0.2 ps=1.4 w=1 l=0.15
X89 V_TOP w_32720_n90# w_32720_n90# w_32720_n90# sky130_fd_pr__pfet_01v8 ad=0.2 pd=1.4 as=0.4 ps=2.8 w=1 l=0.2
X90 1st_Vout_2 cap_res2 sky130_fd_pr__cap_mim_m3_1 l=2 w=2
X91 V_CUR_REF_REG PFET_GATE_10uA w_33500_2220# w_33500_2220# sky130_fd_pr__pfet_01v8 ad=0.2 pd=1.4 as=0.2 ps=1.4 w=1 l=0.15
X92 1st_Vout_1 cap_res1 sky130_fd_pr__cap_mim_m3_1 l=2 w=2
X93 V_TOP m1_35910_n8890# sky130_fd_pr__cap_mim_m3_1 l=2 w=2
X94 V_mir2 V_mir2 w_32720_n90# w_32720_n90# sky130_fd_pr__pfet_01v8 ad=0.2 pd=1.4 as=0.2 ps=1.4 w=1 l=0.2
X95 1st_Vout_1 cap_res1 sky130_fd_pr__cap_mim_m3_1 l=2 w=2
X96 1st_Vout_2 V_mir2 w_32720_n90# w_32720_n90# sky130_fd_pr__pfet_01v8 ad=0.2 pd=1.4 as=0.2 ps=1.4 w=1 l=0.2
X97 1st_Vout_1 cap_res1 sky130_fd_pr__cap_mim_m3_1 l=2 w=2
X98 V_TOP m1_35910_n8890# sky130_fd_pr__cap_mim_m3_1 l=2 w=2
X99 1st_Vout_2 cap_res2 sky130_fd_pr__cap_mim_m3_1 l=2 w=2
X100 Vin- a_32970_n7928# sky130_fd_pr__rf_pnp_05v5_W3p40L3p40_8/Base sky130_fd_pr__res_xhigh_po_0p35 l=6
X101 w_32750_1090# w_32750_1090# V_TOP w_32750_1090# sky130_fd_pr__pfet_01v8 ad=0.45 pd=2.9 as=0.2 ps=1.4 w=1 l=0.15
X102 w_32750_1090# V_TOP Vin- w_32750_1090# sky130_fd_pr__pfet_01v8 ad=0.6 pd=3.4 as=0.6 ps=3.4 w=3 l=0.5
X103 V_mir2 ERR_AMP_REF V_p_2 sky130_fd_pr__rf_pnp_05v5_W3p40L3p40_8/Base sky130_fd_pr__nfet_01v8 ad=1 pd=5.8 as=0.5 ps=2.9 w=2.5 l=0.2
X104 V_TOP m1_35910_n8890# sky130_fd_pr__cap_mim_m3_1 l=2 w=2
X105 a_32440_n6570# a_32320_n7778# sky130_fd_pr__rf_pnp_05v5_W3p40L3p40_8/Base sky130_fd_pr__res_xhigh_po_0p35 l=4
X106 ERR_AMP_REF V_TOP w_32750_1090# w_32750_1090# sky130_fd_pr__pfet_01v8 ad=0.6 pd=3.4 as=0.6 ps=3.4 w=3 l=0.5
X107 w_32720_n90# V_mir1 1st_Vout_1 w_32720_n90# sky130_fd_pr__pfet_01v8 ad=0.2 pd=1.4 as=0.2 ps=1.4 w=1 l=0.2
X108 w_32720_n90# V_mir1 V_mir1 w_32720_n90# sky130_fd_pr__pfet_01v8 ad=0.2 pd=1.4 as=0.2 ps=1.4 w=1 l=0.2
X109 Vin+ V_TOP w_32750_1090# w_32750_1090# sky130_fd_pr__pfet_01v8 ad=0.6 pd=3.4 as=0.6 ps=3.4 w=3 l=0.5
X110 V_TOP m1_35910_n8890# sky130_fd_pr__cap_mim_m3_1 l=2 w=2
X111 a_38570_n6514# sky130_fd_pr__rf_pnp_05v5_W3p40L3p40_8/Base sky130_fd_pr__rf_pnp_05v5_W3p40L3p40_8/Base sky130_fd_pr__res_xhigh_po_0p35 l=4.28
X112 a_33090_n6320# a_32560_n7778# sky130_fd_pr__rf_pnp_05v5_W3p40L3p40_8/Base sky130_fd_pr__res_xhigh_po_0p35 l=6
X113 V_mir1 V_mir1 w_32720_n90# w_32720_n90# sky130_fd_pr__pfet_01v8 ad=0.2 pd=1.4 as=0.2 ps=1.4 w=1 l=0.2
X114 w_32720_n90# w_32720_n90# PFET_GATE_10uA w_32720_n90# sky130_fd_pr__pfet_01v8 ad=0.4 pd=2.8 as=0.2 ps=1.4 w=1 l=0.2
X115 V_CMFB_S1 PFET_GATE_10uA w_33500_2220# w_33500_2220# sky130_fd_pr__pfet_01v8 ad=0.2 pd=1.4 as=0.2 ps=1.4 w=1 l=0.15
X116 Vin- START_UP V_TOP w_32750_1090# sky130_fd_pr__pfet_01v8 ad=0.2 pd=1.4 as=0.2 ps=1.4 w=1 l=0.15
X117 V_TOP 1st_Vout_1 w_32720_n90# w_32720_n90# sky130_fd_pr__pfet_01v8 ad=0.2 pd=1.4 as=0.2 ps=1.4 w=1 l=0.2
X118 Vin- V_TOP w_32750_1090# w_32750_1090# sky130_fd_pr__pfet_01v8 ad=0.6 pd=3.4 as=0.6 ps=3.4 w=3 l=0.5
X119 a_37920_n6320# sky130_fd_pr__rf_pnp_05v5_W3p40L3p40_8/Base sky130_fd_pr__rf_pnp_05v5_W3p40L3p40_8/Base sky130_fd_pr__res_xhigh_po_0p35 l=6
X120 sky130_fd_pr__rf_pnp_05v5_W3p40L3p40_8/Base NFET_GATE_10uA V_CMFB_S4 sky130_fd_pr__rf_pnp_05v5_W3p40L3p40_8/Base sky130_fd_pr__nfet_01v8 ad=0.2 pd=1.4 as=0.2 ps=1.4 w=1 l=0.15
X121 sky130_fd_pr__rf_pnp_05v5_W3p40L3p40_8/Base NFET_GATE_10uA V_CMFB_S4 sky130_fd_pr__rf_pnp_05v5_W3p40L3p40_8/Base sky130_fd_pr__nfet_01v8 ad=0.2 pd=1.4 as=0.2 ps=1.4 w=1 l=0.15
X122 V_mir2 V_mir2 w_32720_n90# w_32720_n90# sky130_fd_pr__pfet_01v8 ad=0.2 pd=1.4 as=0.2 ps=1.4 w=1 l=0.2
X123 PFET_GATE_10uA cap_res2 sky130_fd_pr__rf_pnp_05v5_W3p40L3p40_8/Base sky130_fd_pr__res_high_po_0p35 l=2.05
X124 w_32750_1090# V_TOP START_UP w_32750_1090# sky130_fd_pr__pfet_01v8 ad=0.6 pd=3.4 as=0.6 ps=3.4 w=3 l=0.5
X125 1st_Vout_2 V_mir2 w_32720_n90# w_32720_n90# sky130_fd_pr__pfet_01v8 ad=0.2 pd=1.4 as=0.2 ps=1.4 w=1 l=0.2
X126 V_TOP m1_35910_n8890# sky130_fd_pr__cap_mim_m3_1 l=2 w=2
X127 w_32720_n90# 1st_Vout_2 PFET_GATE_10uA w_32720_n90# sky130_fd_pr__pfet_01v8 ad=0.2 pd=1.4 as=0.2 ps=1.4 w=1 l=0.2
X128 V_TOP cap_res1 sky130_fd_pr__rf_pnp_05v5_W3p40L3p40_8/Base sky130_fd_pr__res_high_po_0p35 l=2.05
X129 V_TOP m1_35910_n8890# sky130_fd_pr__cap_mim_m3_1 l=2 w=2
X130 sky130_fd_pr__rf_pnp_05v5_W3p40L3p40_8/Base sky130_fd_pr__rf_pnp_05v5_W3p40L3p40_8/Base VB3_CUR_BIAS sky130_fd_pr__rf_pnp_05v5_W3p40L3p40_8/Base sky130_fd_pr__nfet_01v8 ad=0.4 pd=2.8 as=0.2 ps=1.4 w=1 l=0.15
X131 w_32750_1090# V_TOP ERR_AMP_REF w_32750_1090# sky130_fd_pr__pfet_01v8 ad=0.6 pd=3.4 as=0.6 ps=3.4 w=3 l=0.5
X132 w_32720_n90# V_mir2 V_mir2 w_32720_n90# sky130_fd_pr__pfet_01v8 ad=0.2 pd=1.4 as=0.2 ps=1.4 w=1 l=0.2
X133 VB3_CUR_BIAS NFET_GATE_10uA sky130_fd_pr__rf_pnp_05v5_W3p40L3p40_8/Base sky130_fd_pr__rf_pnp_05v5_W3p40L3p40_8/Base sky130_fd_pr__nfet_01v8 ad=0.2 pd=1.4 as=0.2 ps=1.4 w=1 l=0.15
X134 w_33500_2220# PFET_GATE_10uA TAIL_CUR_MIR_BIAS w_33500_2220# sky130_fd_pr__pfet_01v8 ad=0.2 pd=1.4 as=0.2 ps=1.4 w=1 l=0.15
X135 ERR_AMP_CUR_BIAS NFET_GATE_10uA sky130_fd_pr__rf_pnp_05v5_W3p40L3p40_8/Base sky130_fd_pr__rf_pnp_05v5_W3p40L3p40_8/Base sky130_fd_pr__nfet_01v8 ad=0.2 pd=1.4 as=0.2 ps=1.4 w=1 l=0.15
X136 V_TOP m1_35910_n8890# sky130_fd_pr__cap_mim_m3_1 l=2 w=2
X137 1st_Vout_2 cap_res2 sky130_fd_pr__cap_mim_m3_1 l=2 w=2
X138 V_TOP m1_35910_n8890# sky130_fd_pr__cap_mim_m3_1 l=2 w=2
X139 w_32750_1090# V_TOP START_UP w_32750_1090# sky130_fd_pr__pfet_01v8 ad=0.6 pd=3.4 as=0.6 ps=3.4 w=3 l=0.5
X140 sky130_fd_pr__rf_pnp_05v5_W3p40L3p40_8/Base a_33140_n1850# PFET_GATE_10uA sky130_fd_pr__rf_pnp_05v5_W3p40L3p40_8/Base sky130_fd_pr__nfet_01v8 ad=1 pd=5.8 as=1 ps=5.8 w=2.5 l=5
X141 w_33500_2220# w_33500_2220# V_CMFB_S3 w_33500_2220# sky130_fd_pr__pfet_01v8 ad=0.4 pd=2.8 as=0.2 ps=1.4 w=1 l=0.15
X142 1st_Vout_1 cap_res1 sky130_fd_pr__cap_mim_m3_1 l=2 w=2
X143 PFET_GATE_10uA w_32720_n90# w_32720_n90# w_32720_n90# sky130_fd_pr__pfet_01v8 ad=0.2 pd=1.4 as=0.4 ps=2.8 w=1 l=0.2
X144 V_TOP a_33140_n1850# sky130_fd_pr__rf_pnp_05v5_W3p40L3p40_8/Base sky130_fd_pr__rf_pnp_05v5_W3p40L3p40_8/Base sky130_fd_pr__nfet_01v8 ad=1 pd=5.8 as=1.01 ps=6.15 w=2.5 l=5
X145 1st_Vout_2 cap_res2 sky130_fd_pr__cap_mim_m3_1 l=2 w=2
X146 VB2_CUR_BIAS NFET_GATE_10uA sky130_fd_pr__rf_pnp_05v5_W3p40L3p40_8/Base sky130_fd_pr__rf_pnp_05v5_W3p40L3p40_8/Base sky130_fd_pr__nfet_01v8 ad=0.2 pd=1.4 as=0.2 ps=1.4 w=1 l=0.15
X147 sky130_fd_pr__rf_pnp_05v5_W3p40L3p40_8/Base NFET_GATE_10uA VB2_CUR_BIAS sky130_fd_pr__rf_pnp_05v5_W3p40L3p40_8/Base sky130_fd_pr__nfet_01v8 ad=0.2 pd=1.4 as=0.2 ps=1.4 w=1 l=0.15
X148 START_UP V_TOP w_32750_1090# w_32750_1090# sky130_fd_pr__pfet_01v8 ad=0.6 pd=3.4 as=0.6 ps=3.4 w=3 l=0.5
X149 1st_Vout_1 cap_res1 sky130_fd_pr__cap_mim_m3_1 l=2 w=2
X150 V_TOP m1_35910_n8890# sky130_fd_pr__cap_mim_m3_1 l=2 w=2
X151 1st_Vout_1 cap_res1 sky130_fd_pr__cap_mim_m3_1 l=2 w=2
X152 w_33500_2220# PFET_GATE_10uA TAIL_CUR_MIR_BIAS w_33500_2220# sky130_fd_pr__pfet_01v8 ad=0.2 pd=1.4 as=0.2 ps=1.4 w=1 l=0.15
X153 ERR_AMP_REF V_TOP w_32750_1090# w_32750_1090# sky130_fd_pr__pfet_01v8 ad=0.6 pd=3.4 as=0.6 ps=3.4 w=3 l=0.5
X154 V_TOP 1st_Vout_1 w_32720_n90# w_32720_n90# sky130_fd_pr__pfet_01v8 ad=0.2 pd=1.4 as=0.2 ps=1.4 w=1 l=0.2
X155 1st_Vout_1 cap_res1 sky130_fd_pr__cap_mim_m3_1 l=2 w=2
X156 1st_Vout_1 V_mir1 w_32720_n90# w_32720_n90# sky130_fd_pr__pfet_01v8 ad=0.2 pd=1.4 as=0.2 ps=1.4 w=1 l=0.2
X157 ERR_AMP_REF a_38690_n7778# sky130_fd_pr__rf_pnp_05v5_W3p40L3p40_8/Base sky130_fd_pr__res_xhigh_po_0p35 l=4.28
X158 START_UP V_TOP w_32750_1090# w_32750_1090# sky130_fd_pr__pfet_01v8 ad=0.6 pd=3.4 as=0.6 ps=3.4 w=3 l=0.5
X159 w_32720_n90# V_mir1 V_mir1 w_32720_n90# sky130_fd_pr__pfet_01v8 ad=0.2 pd=1.4 as=0.2 ps=1.4 w=1 l=0.2
X160 w_33500_2220# PFET_GATE_10uA V_CMFB_S3 w_33500_2220# sky130_fd_pr__pfet_01v8 ad=0.2 pd=1.4 as=0.2 ps=1.4 w=1 l=0.15
X161 w_32720_n90# 1st_Vout_1 V_TOP w_32720_n90# sky130_fd_pr__pfet_01v8 ad=0.2 pd=1.4 as=0.2 ps=1.4 w=1 l=0.2
X162 V_TOP w_32750_1090# w_32750_1090# w_32750_1090# sky130_fd_pr__pfet_01v8 ad=0.2 pd=1.4 as=0.4 ps=2.8 w=1 l=0.15
X163 w_32720_n90# V_mir2 V_mir2 w_32720_n90# sky130_fd_pr__pfet_01v8 ad=0.2 pd=1.4 as=0.2 ps=1.4 w=1 l=0.2
X164 w_32750_1090# V_TOP Vin- w_32750_1090# sky130_fd_pr__pfet_01v8 ad=0.6 pd=3.4 as=0.6 ps=3.4 w=3 l=0.5
X165 1st_Vout_1 cap_res1 sky130_fd_pr__cap_mim_m3_1 l=2 w=2
X166 w_32720_n90# V_mir2 1st_Vout_2 w_32720_n90# sky130_fd_pr__pfet_01v8 ad=0.2 pd=1.4 as=0.2 ps=1.4 w=1 l=0.2
X167 a_33090_n6320# a_32970_n7928# sky130_fd_pr__rf_pnp_05v5_W3p40L3p40_8/Base sky130_fd_pr__res_xhigh_po_0p35 l=6
X168 sky130_fd_pr__rf_pnp_05v5_W3p40L3p40_8/Base sky130_fd_pr__rf_pnp_05v5_W3p40L3p40_8/Base VB2_CUR_BIAS sky130_fd_pr__rf_pnp_05v5_W3p40L3p40_8/Base sky130_fd_pr__nfet_01v8 ad=0.4 pd=2.8 as=0.2 ps=1.4 w=1 l=0.15
X169 w_33500_2220# PFET_GATE_10uA TAIL_CUR_MIR_BIAS w_33500_2220# sky130_fd_pr__pfet_01v8 ad=0.2 pd=1.4 as=0.2 ps=1.4 w=1 l=0.15
X170 w_32750_1090# V_TOP Vin+ w_32750_1090# sky130_fd_pr__pfet_01v8 ad=0.6 pd=3.4 as=0.6 ps=3.4 w=3 l=0.5
X171 V_p_1 Vin- V_mir1 sky130_fd_pr__rf_pnp_05v5_W3p40L3p40_8/Base sky130_fd_pr__nfet_01v8 ad=0.5 pd=2.9 as=1 ps=5.8 w=2.5 l=0.2
X172 PFET_GATE_10uA 1st_Vout_2 w_32720_n90# w_32720_n90# sky130_fd_pr__pfet_01v8 ad=0.2 pd=1.4 as=0.2 ps=1.4 w=1 l=0.2
X173 1st_Vout_2 cap_res2 sky130_fd_pr__cap_mim_m3_1 l=2 w=2
X174 V_TOP m1_35910_n8890# sky130_fd_pr__cap_mim_m3_1 l=2 w=2
X175 w_33500_2220# PFET_GATE_10uA V_CMFB_S3 w_33500_2220# sky130_fd_pr__pfet_01v8 ad=0.2 pd=1.4 as=0.2 ps=1.4 w=1 l=0.15
X176 1st_Vout_2 cap_res2 sky130_fd_pr__cap_mim_m3_1 l=2 w=2
X177 w_33500_2220# PFET_GATE_10uA V_CMFB_S1 w_33500_2220# sky130_fd_pr__pfet_01v8 ad=0.2 pd=1.4 as=0.2 ps=1.4 w=1 l=0.15
X178 V_TOP 1st_Vout_1 w_32720_n90# w_32720_n90# sky130_fd_pr__pfet_01v8 ad=0.2 pd=1.4 as=0.2 ps=1.4 w=1 l=0.2
X179 sky130_fd_pr__rf_pnp_05v5_W3p40L3p40_8/Base a_33140_n1850# V_p_1 sky130_fd_pr__rf_pnp_05v5_W3p40L3p40_8/Base sky130_fd_pr__nfet_01v8 ad=1.01 pd=6.15 as=1 ps=5.8 w=2.5 l=5
X180 1st_Vout_2 cap_res2 sky130_fd_pr__cap_mim_m3_1 l=2 w=2
X181 Vin- V_TOP w_32750_1090# w_32750_1090# sky130_fd_pr__pfet_01v8 ad=0.6 pd=3.4 as=0.6 ps=3.4 w=3 l=0.5
X182 1st_Vout_1 cap_res1 sky130_fd_pr__cap_mim_m3_1 l=2 w=2
X183 w_33500_2220# PFET_GATE_10uA TAIL_CUR_MIR_BIAS w_33500_2220# sky130_fd_pr__pfet_01v8 ad=0.2 pd=1.4 as=0.2 ps=1.4 w=1 l=0.15
X184 w_33500_2220# w_33500_2220# V_CUR_REF_REG w_33500_2220# sky130_fd_pr__pfet_01v8 ad=0.4 pd=2.8 as=0.2 ps=1.4 w=1 l=0.15
X185 1st_Vout_1 cap_res1 sky130_fd_pr__cap_mim_m3_1 l=2 w=2
X186 1st_Vout_1 cap_res1 sky130_fd_pr__cap_mim_m3_1 l=2 w=2
X187 a_37920_n6320# a_38040_n7928# sky130_fd_pr__rf_pnp_05v5_W3p40L3p40_8/Base sky130_fd_pr__res_xhigh_po_0p35 l=6
X188 w_32720_n90# 1st_Vout_1 V_TOP w_32720_n90# sky130_fd_pr__pfet_01v8 ad=0.2 pd=1.4 as=0.2 ps=1.4 w=1 l=0.2
X189 V_TOP m1_35910_n8890# sky130_fd_pr__cap_mim_m3_1 l=2 w=2
X190 V_CMFB_S4 sky130_fd_pr__rf_pnp_05v5_W3p40L3p40_8/Base sky130_fd_pr__rf_pnp_05v5_W3p40L3p40_8/Base sky130_fd_pr__rf_pnp_05v5_W3p40L3p40_8/Base sky130_fd_pr__nfet_01v8 ad=0.2 pd=1.4 as=0.4 ps=2.8 w=1 l=0.15
X191 w_32750_1090# PFET_GATE_10uA VB1_CUR_BIAS w_32750_1090# sky130_fd_pr__pfet_01v8 ad=0.4 pd=2.4 as=0.4 ps=2.4 w=2 l=0.15
X192 V_CMFB_S4 NFET_GATE_10uA sky130_fd_pr__rf_pnp_05v5_W3p40L3p40_8/Base sky130_fd_pr__rf_pnp_05v5_W3p40L3p40_8/Base sky130_fd_pr__nfet_01v8 ad=0.2 pd=1.4 as=0.2 ps=1.4 w=1 l=0.15
X193 w_32750_1090# w_32750_1090# ERR_AMP_REF w_32750_1090# sky130_fd_pr__pfet_01v8 ad=1.2 pd=6.8 as=0.6 ps=3.4 w=3 l=0.5
X194 w_32720_n90# V_mir1 1st_Vout_1 w_32720_n90# sky130_fd_pr__pfet_01v8 ad=0.2 pd=1.4 as=0.2 ps=1.4 w=1 l=0.2
X195 V_TOP m1_35910_n8890# sky130_fd_pr__cap_mim_m3_1 l=2 w=2
X196 V_TOP m1_35910_n8890# sky130_fd_pr__cap_mim_m3_1 l=2 w=2
X197 1st_Vout_2 cap_res2 sky130_fd_pr__cap_mim_m3_1 l=2 w=2
X198 a_32440_n6570# a_32560_n7778# sky130_fd_pr__rf_pnp_05v5_W3p40L3p40_8/Base sky130_fd_pr__res_xhigh_po_0p35 l=4
X199 V_TOP m1_35910_n8890# sky130_fd_pr__cap_mim_m3_1 l=2 w=2
X200 V_mir1 V_mir1 w_32720_n90# w_32720_n90# sky130_fd_pr__pfet_01v8 ad=0.2 pd=1.4 as=0.2 ps=1.4 w=1 l=0.2
.ends

.subckt two_stage_opamp_dummy_magic_24 V_CMFB_S1 V_CMFB_S3 Vb3 Vb2 V_CMFB_S2 V_CMFB_S4
+ VOUT- VOUT+ V_tail_gate V_err_amp_ref V_err_gate a_109560_2850# Vb1 VIN- VIN+ w_109520_3890#
X0 VD4 Vb2 Y VD4 sky130_fd_pr__pfet_01v8 ad=0.7 pd=3.9 as=0.7 ps=3.9 w=3.5 l=0.2
X1 w_109520_3890# V_err_gate V_err_mir_p w_109520_3890# sky130_fd_pr__pfet_01v8 ad=0.5 pd=2.9 as=0.5 ps=2.9 w=2.5 l=0.15
X2 a_109560_2850# V_tail_gate V_source a_109560_2850# sky130_fd_pr__nfet_01v8 ad=0.5 pd=2.9 as=0.5 ps=2.9 w=2.5 l=0.15
X3 w_109520_3890# Vb3 VD3 w_109520_3890# sky130_fd_pr__pfet_01v8 ad=0.7 pd=3.9 as=0.7 ps=3.9 w=3.5 l=0.2
X4 VOUT+ cap_res_Y sky130_fd_pr__cap_mim_m3_1 l=2 w=2
X5 VOUT+ cap_res_Y sky130_fd_pr__cap_mim_m3_1 l=2 w=2
X6 a_109560_2850# a_109560_2850# w_109520_3890# a_109560_2850# sky130_fd_pr__nfet_01v8 ad=1.2 pd=6.8 as=0.6 ps=3.4 w=3 l=0.15
X7 VD2 Vb1 Y a_109560_2850# sky130_fd_pr__nfet_01v8 ad=0.3 pd=1.9 as=0.3 ps=1.9 w=1.5 l=0.15
X8 VOUT- cap_res_X sky130_fd_pr__cap_mim_m3_1 l=2 w=2
X9 VOUT- cap_res_X sky130_fd_pr__cap_mim_m3_1 l=2 w=2
X10 VOUT- cap_res_X sky130_fd_pr__cap_mim_m3_1 l=2 w=2
X11 VD1 Vb1 X a_109560_2850# sky130_fd_pr__nfet_01v8 ad=0.3 pd=1.9 as=0.3 ps=1.9 w=1.5 l=0.15
X12 VOUT+ cap_res_Y sky130_fd_pr__cap_mim_m3_1 l=2 w=2
X13 VOUT- cap_res_X sky130_fd_pr__cap_mim_m3_1 l=2 w=2
X14 w_109520_3890# X VOUT- w_109520_3890# sky130_fd_pr__pfet_01v8 ad=1.2 pd=6.4 as=1.2 ps=6.4 w=6 l=0.15
X15 VOUT+ cap_res_Y sky130_fd_pr__cap_mim_m3_1 l=2 w=2
X16 VOUT- cap_res_X sky130_fd_pr__cap_mim_m3_1 l=2 w=2
X17 VOUT+ cap_res_Y sky130_fd_pr__cap_mim_m3_1 l=2 w=2
X18 a_109560_2850# Y V_CMFB_S3 w_109520_3890# sky130_fd_pr__pfet_01v8 ad=0.4 pd=2.4 as=0.4 ps=2.4 w=2 l=0.15
X19 VOUT+ cap_res_Y sky130_fd_pr__cap_mim_m3_1 l=2 w=2
X20 w_109520_3890# w_109520_3890# VD3 w_109520_3890# sky130_fd_pr__pfet_01v8 ad=1.4 pd=7.8 as=0.7 ps=3.9 w=3.5 l=0.2
X21 VOUT+ cap_res_Y sky130_fd_pr__cap_mim_m3_1 l=2 w=2
X22 VOUT+ cap_res_Y sky130_fd_pr__cap_mim_m3_1 l=2 w=2
X23 V_p_mir V_tail_gate a_109560_2850# a_109560_2850# sky130_fd_pr__nfet_01v8 ad=0.5 pd=2.9 as=0.5 ps=2.9 w=2.5 l=0.15
X24 w_109520_3890# Y V_CMFB_S4 a_109560_2850# sky130_fd_pr__nfet_01v8 ad=0.6 pd=3.4 as=0.6 ps=3.4 w=3 l=0.15
X25 Y Vb1 VD2 a_109560_2850# sky130_fd_pr__nfet_01v8 ad=0.3 pd=1.9 as=0.3 ps=1.9 w=1.5 l=0.15
X26 VOUT- cap_res_X sky130_fd_pr__cap_mim_m3_1 l=2 w=2
X27 a_118250_3658# V_CMFB_S2 a_109560_2850# sky130_fd_pr__res_xhigh_po_0p35 l=1.75
X28 VOUT+ cap_res_Y sky130_fd_pr__cap_mim_m3_1 l=2 w=2
X29 w_109520_3890# X V_CMFB_S2 a_109560_2850# sky130_fd_pr__nfet_01v8 ad=0.6 pd=3.4 as=0.6 ps=3.4 w=3 l=0.15
X30 VOUT- cap_res_X sky130_fd_pr__cap_mim_m3_1 l=2 w=2
X31 VOUT+ cap_res_Y sky130_fd_pr__cap_mim_m3_1 l=2 w=2
X32 VOUT+ cap_res_Y sky130_fd_pr__cap_mim_m3_1 l=2 w=2
X33 a_109560_2850# a_109560_2850# err_amp_out a_109560_2850# sky130_fd_pr__nfet_01v8 ad=1 pd=5.8 as=0.5 ps=2.9 w=2.5 l=0.15
X34 a_109560_2850# w_109520_3890# w_109520_3890# w_109520_3890# sky130_fd_pr__pfet_01v8 ad=0.4 pd=2.4 as=0.8 ps=4.8 w=2 l=0.15
X35 VD2 VIN+ V_source a_109560_2850# sky130_fd_pr__nfet_01v8 ad=0.3 pd=1.9 as=0.3 ps=1.9 w=1.5 l=0.15
X36 VD4 Vb2 Y VD4 sky130_fd_pr__pfet_01v8 ad=0.7 pd=3.9 as=0.7 ps=3.9 w=3.5 l=0.2
X37 VOUT+ cap_res_Y sky130_fd_pr__cap_mim_m3_1 l=2 w=2
X38 VOUT+ cap_res_Y sky130_fd_pr__cap_mim_m3_1 l=2 w=2
X39 w_109520_3890# w_109520_3890# a_109560_2850# w_109520_3890# sky130_fd_pr__pfet_01v8 ad=0.8 pd=4.8 as=0.4 ps=2.4 w=2 l=0.15
X40 VOUT- cap_res_X sky130_fd_pr__cap_mim_m3_1 l=2 w=2
X41 VD1 VIN- V_source a_109560_2850# sky130_fd_pr__nfet_01v8 ad=0.3 pd=1.9 as=0.3 ps=1.9 w=1.5 l=0.15
X42 VOUT+ cap_res_Y sky130_fd_pr__cap_mim_m3_1 l=2 w=2
X43 VOUT+ cap_res_Y sky130_fd_pr__cap_mim_m3_1 l=2 w=2
X44 VOUT+ cap_res_Y sky130_fd_pr__cap_mim_m3_1 l=2 w=2
X45 w_109520_3890# w_109520_3890# a_109560_2850# w_109520_3890# sky130_fd_pr__pfet_01v8 ad=0.8 pd=4.8 as=0.4 ps=2.4 w=2 l=0.15
X46 VOUT- cap_res_X sky130_fd_pr__cap_mim_m3_1 l=2 w=2
X47 VOUT+ a_109200_146# a_109560_2850# sky130_fd_pr__res_xhigh_po_0p35 l=2.63
X48 V_CMFB_S4 Y w_109520_3890# a_109560_2850# sky130_fd_pr__nfet_01v8 ad=0.6 pd=3.4 as=0.6 ps=3.4 w=3 l=0.15
X49 a_108920_3658# V_CMFB_S4 a_109560_2850# sky130_fd_pr__res_xhigh_po_0p35 l=1.75
X50 V_err_gate w_109520_3890# w_109520_3890# w_109520_3890# sky130_fd_pr__pfet_01v8 ad=0.5 pd=2.9 as=1 ps=5.8 w=2.5 l=0.15
X51 VOUT- cap_res_X sky130_fd_pr__cap_mim_m3_1 l=2 w=2
X52 Vb1 Vb1 Vb1_2 a_109560_2850# sky130_fd_pr__nfet_01v8 ad=0.3 pd=1.9 as=0.3 ps=1.9 w=1.5 l=0.15
X53 VD3 Vb2 X VD3 sky130_fd_pr__pfet_01v8 ad=0.7 pd=3.9 as=0.7 ps=3.9 w=3.5 l=0.2
X54 VOUT+ cap_res_Y sky130_fd_pr__cap_mim_m3_1 l=2 w=2
X55 V_CMFB_S2 X w_109520_3890# a_109560_2850# sky130_fd_pr__nfet_01v8 ad=0.6 pd=3.4 as=0.6 ps=3.4 w=3 l=0.15
X56 VOUT- cap_res_X sky130_fd_pr__cap_mim_m3_1 l=2 w=2
X57 VOUT- cap_res_X sky130_fd_pr__cap_mim_m3_1 l=2 w=2
X58 VOUT- cap_res_X sky130_fd_pr__cap_mim_m3_1 l=2 w=2
X59 VD1 Vb1 X a_109560_2850# sky130_fd_pr__nfet_01v8 ad=0.3 pd=1.9 as=0.3 ps=1.9 w=1.5 l=0.15
X60 VOUT+ cap_res_Y sky130_fd_pr__cap_mim_m3_1 l=2 w=2
X61 VOUT+ cap_res_Y sky130_fd_pr__cap_mim_m3_1 l=2 w=2