** sch_path: /foss/designs/my_design/projects/ASU/EEE572/schematic/tb_buck_converter_2.sch
**.subckt tb_buck_converter_2
V1 VDD GND pwl(0 0 1us 0 1.2us 1.8)
R46 V_CONVERTER_OUT ERR_AMP_VIN_M 10000 m=1
C3 ERR_AMP_OUT net1 0.005n m=1
R47 net1 ERR_AMP_VIN_M 16700 m=1
C4 ERR_AMP_OUT ERR_AMP_VIN_M 0.07n m=1
R48 V_CONVERTER_OUT net2 700 m=1
C5 net2 ERR_AMP_VIN_M 3.3n m=1
R49 ERR_AMP_VIN_M GND 1000 m=1
V12 buck_vin GND 25
R27 V_CONVERTER_OUT GND 1 m=1
L53 V_CONVERTER_OUT V_DIODE 30u m=1
C6 V_CAP GND 250u m=1
R28 V_CONVERTER_OUT V_CAP 0.05 m=1
S1 buck_vin V_DIODE SW_IN GND SW1
S2 V_DIODE GND SW_IN_B GND SW1
x1 VDD VBIAS1 ERR_AMP_OUT SAWTOOTH_OUT PWM_OUT GND PWM_comparator
x2 VDD SW_IN GND PWM_OUT SW_IN_B RESET_CLK SR_latch
x3 VDD VBIAS1 VBIAS2 VBIAS3 VBIAS4 GND biasing_circuit
x4 VDD VBIAS1 VBIAS2 ERR_AMP_OUT ERR_AMP_REF ERR_AMP_VIN_M VBIAS3 VBIAS4 GND error_opamp
x5 VDD SAWTOOTH_OUT VBIAS1 PULSE_MAG_REF RESET_CLK GND sawtooth_generator
x6 VDD ERR_AMP_REF PULSE_MAG_REF GND bgr_ref_volt
**** begin user architecture code
.lib /foss/pdks/sky130A/libs.tech/combined/sky130.lib.spice tt



.options method=gear
.options wnflag=1
* .options savecurrents

* .model D1N914 D(Is=1.93E-3 N=1.68 Rs=0.000917 Cjo=3.25n M=0.333 Bv=40 Ibv=20m Tt=14.4n)

.save
+v(sw_in)
+v(v_converter_out)
+v(x3.v_ref)
+v(x6.v_top)
+v(vbias1)
+v(vbias2)
+v(vbias3)
+v(vbias4)
+v(err_amp_vin_m)
+v(err_amp_ref)
+v(pulse_mag_ref)
+v(sawtooth_out)
+v(reset_clk)
+v(pwm_out)
+v(sw_in_b)
+v(v_diode)
+v(v_cap)
+v(buck_in)
+@m.x3.x1.msky130_fd_pr__nfet_01v8[id]
+@m.x3.x23.msky130_fd_pr__pfet_01v8[id]
+@m.x6.x45.msky130_fd_pr__pfet_01v8[id]


.control
  * save v(sw_in) v(v_converter_out)
  * save all
  * tran 10ns 1ms
  tran 0.2ns 450us
  remzerovec
  write tb_buck_converter_2_7.raw
  set appendwrite

.endc



**** end user architecture code
**.ends

* expanding   symbol:  PWM_comparator.sym # of pins=6
** sym_path: /foss/designs/my_design/projects/ASU/EEE572/schematic/PWM_comparator.sym
** sch_path: /foss/designs/my_design/projects/ASU/EEE572/schematic/PWM_comparator.sch
.subckt PWM_comparator VDDA VBIAS1 PWM_IN_P PWM_IN_M PWM_OUT GNDA
*.iopin GNDA
*.iopin VDDA
*.ipin PWM_IN_P
*.opin PWM_OUT
*.ipin PWM_IN_M
*.ipin VBIAS1
XM34 PMW_PULL_DOWN PWM_AMP_OUT GNDA GNDA sky130_fd_pr__nfet_01v8 L=0.3 W=2 nf=2 ad='int((nf+1)/2) * W/nf * 0.29' as='int((nf+2)/2) * W/nf * 0.29'
+ pd='2*int((nf+1)/2) * (W/nf + 0.29)' ps='2*int((nf+2)/2) * (W/nf + 0.29)' nrd='0.29 / W' nrs='0.29 / W' sa=0 sb=0 sd=0 mult=1 m=1
XM52 PMW_PULL_DOWN VBIAS1 net1 VDDA sky130_fd_pr__pfet_01v8 L=0.3 W=12 nf=1 ad='int((nf+1)/2) * W/nf * 0.29' as='int((nf+2)/2) * W/nf * 0.29'
+ pd='2*int((nf+1)/2) * (W/nf + 0.29)' ps='2*int((nf+2)/2) * (W/nf + 0.29)' nrd='0.29 / W' nrs='0.29 / W' sa=0 sb=0 sd=0 mult=1 m=1
XM82 net1 VBIAS1 net2 VDDA sky130_fd_pr__pfet_01v8 L=0.3 W=12 nf=1 ad='int((nf+1)/2) * W/nf * 0.29' as='int((nf+2)/2) * W/nf * 0.29'
+ pd='2*int((nf+1)/2) * (W/nf + 0.29)' ps='2*int((nf+2)/2) * (W/nf + 0.29)' nrd='0.29 / W' nrs='0.29 / W' sa=0 sb=0 sd=0 mult=1 m=1
XM83 net2 VBIAS1 VDDA VDDA sky130_fd_pr__pfet_01v8 L=0.3 W=12 nf=1 ad='int((nf+1)/2) * W/nf * 0.29' as='int((nf+2)/2) * W/nf * 0.29'
+ pd='2*int((nf+1)/2) * (W/nf + 0.29)' ps='2*int((nf+2)/2) * (W/nf + 0.29)' nrd='0.29 / W' nrs='0.29 / W' sa=0 sb=0 sd=0 mult=1 m=1
XM35 PWM_OUT PMW_PULL_DOWN GNDA GNDA sky130_fd_pr__nfet_01v8 L=0.15 W=4 nf=2 ad='int((nf+1)/2) * W/nf * 0.29' as='int((nf+2)/2) * W/nf * 0.29'
+ pd='2*int((nf+1)/2) * (W/nf + 0.29)' ps='2*int((nf+2)/2) * (W/nf + 0.29)' nrd='0.29 / W' nrs='0.29 / W' sa=0 sb=0 sd=0 mult=1 m=1
XM36 PWM_OUT PMW_PULL_DOWN VDDA VDDA sky130_fd_pr__pfet_01v8 L=0.15 W=36 nf=6 ad='int((nf+1)/2) * W/nf * 0.29' as='int((nf+2)/2) * W/nf * 0.29'
+ pd='2*int((nf+1)/2) * (W/nf + 0.29)' ps='2*int((nf+2)/2) * (W/nf + 0.29)' nrd='0.29 / W' nrs='0.29 / W' sa=0 sb=0 sd=0 mult=1 m=1
XM80 PWM_VD1 PWM_VD1 GNDA GNDA sky130_fd_pr__nfet_01v8 L=0.15 W=4 nf=2 ad='int((nf+1)/2) * W/nf * 0.29' as='int((nf+2)/2) * W/nf * 0.29'
+ pd='2*int((nf+1)/2) * (W/nf + 0.29)' ps='2*int((nf+2)/2) * (W/nf + 0.29)' nrd='0.29 / W' nrs='0.29 / W' sa=0 sb=0 sd=0 mult=1 m=1
XM81 PWM_VD2 PWM_VD2 GNDA GNDA sky130_fd_pr__nfet_01v8 L=0.15 W=4 nf=2 ad='int((nf+1)/2) * W/nf * 0.29' as='int((nf+2)/2) * W/nf * 0.29'
+ pd='2*int((nf+1)/2) * (W/nf + 0.29)' ps='2*int((nf+2)/2) * (W/nf + 0.29)' nrd='0.29 / W' nrs='0.29 / W' sa=0 sb=0 sd=0 mult=1 m=1
XM84 PWM_VD2 PWM_IN_P PWM_Vp VDDA sky130_fd_pr__pfet_01v8 L=0.15 W=12 nf=6 ad='int((nf+1)/2) * W/nf * 0.29' as='int((nf+2)/2) * W/nf * 0.29'
+ pd='2*int((nf+1)/2) * (W/nf + 0.29)' ps='2*int((nf+2)/2) * (W/nf + 0.29)' nrd='0.29 / W' nrs='0.29 / W' sa=0 sb=0 sd=0 mult=1 m=1
XM85 PWM_VD1 PWM_IN_M PWM_Vp VDDA sky130_fd_pr__pfet_01v8 L=0.15 W=12 nf=6 ad='int((nf+1)/2) * W/nf * 0.29' as='int((nf+2)/2) * W/nf * 0.29'
+ pd='2*int((nf+1)/2) * (W/nf + 0.29)' ps='2*int((nf+2)/2) * (W/nf + 0.29)' nrd='0.29 / W' nrs='0.29 / W' sa=0 sb=0 sd=0 mult=1 m=1
XM86 PWM_Vp VBIAS1 VDDA VDDA sky130_fd_pr__pfet_01v8 L=0.3 W=12 nf=1 ad='int((nf+1)/2) * W/nf * 0.29' as='int((nf+2)/2) * W/nf * 0.29'
+ pd='2*int((nf+1)/2) * (W/nf + 0.29)' ps='2*int((nf+2)/2) * (W/nf + 0.29)' nrd='0.29 / W' nrs='0.29 / W' sa=0 sb=0 sd=0 mult=1 m=1
XM87 PWM_AMP_MIR PWM_VD1 GNDA GNDA sky130_fd_pr__nfet_01v8 L=0.15 W=4 nf=2 ad='int((nf+1)/2) * W/nf * 0.29' as='int((nf+2)/2) * W/nf * 0.29'
+ pd='2*int((nf+1)/2) * (W/nf + 0.29)' ps='2*int((nf+2)/2) * (W/nf + 0.29)' nrd='0.29 / W' nrs='0.29 / W' sa=0 sb=0 sd=0 mult=1 m=1
XM88 PWM_AMP_OUT PWM_VD2 GNDA GNDA sky130_fd_pr__nfet_01v8 L=0.15 W=4 nf=2 ad='int((nf+1)/2) * W/nf * 0.29' as='int((nf+2)/2) * W/nf * 0.29'
+ pd='2*int((nf+1)/2) * (W/nf + 0.29)' ps='2*int((nf+2)/2) * (W/nf + 0.29)' nrd='0.29 / W' nrs='0.29 / W' sa=0 sb=0 sd=0 mult=1 m=1
XM89 PWM_AMP_MIR PWM_AMP_MIR VDDA VDDA sky130_fd_pr__pfet_01v8 L=0.15 W=12 nf=6 ad='int((nf+1)/2) * W/nf * 0.29' as='int((nf+2)/2) * W/nf * 0.29'
+ pd='2*int((nf+1)/2) * (W/nf + 0.29)' ps='2*int((nf+2)/2) * (W/nf + 0.29)' nrd='0.29 / W' nrs='0.29 / W' sa=0 sb=0 sd=0 mult=1 m=1
XM90 PWM_AMP_OUT PWM_AMP_MIR VDDA VDDA sky130_fd_pr__pfet_01v8 L=0.15 W=12 nf=6 ad='int((nf+1)/2) * W/nf * 0.29' as='int((nf+2)/2) * W/nf * 0.29'
+ pd='2*int((nf+1)/2) * (W/nf + 0.29)' ps='2*int((nf+2)/2) * (W/nf + 0.29)' nrd='0.29 / W' nrs='0.29 / W' sa=0 sb=0 sd=0 mult=1 m=1
XM91 PWM_VD2 PWM_VD1 GNDA GNDA sky130_fd_pr__nfet_01v8 L=0.15 W=4 nf=2 ad='int((nf+1)/2) * W/nf * 0.29' as='int((nf+2)/2) * W/nf * 0.29'
+ pd='2*int((nf+1)/2) * (W/nf + 0.29)' ps='2*int((nf+2)/2) * (W/nf + 0.29)' nrd='0.29 / W' nrs='0.29 / W' sa=0 sb=0 sd=0 mult=1 m=1
XM92 PWM_VD1 PWM_VD2 GNDA GNDA sky130_fd_pr__nfet_01v8 L=0.15 W=4 nf=2 ad='int((nf+1)/2) * W/nf * 0.29' as='int((nf+2)/2) * W/nf * 0.29'
+ pd='2*int((nf+1)/2) * (W/nf + 0.29)' ps='2*int((nf+2)/2) * (W/nf + 0.29)' nrd='0.29 / W' nrs='0.29 / W' sa=0 sb=0 sd=0 mult=1 m=1
.ends


* expanding   symbol:  SR_latch.sym # of pins=6
** sym_path: /foss/designs/my_design/projects/ASU/EEE572/schematic/SR_latch.sym
** sch_path: /foss/designs/my_design/projects/ASU/EEE572/schematic/SR_latch.sch
.subckt SR_latch VDDA Q GNDA S Q_B R
*.ipin S
*.ipin R
*.opin Q
*.opin Q_B
*.opin GNDA
*.opin VDDA
x3 VDD GND S Q_NOT_USED Q_B nand_pfd
x1 VDD GND Q_B R Q_NOT_USED nand_pfd
XM38 net1 S GNDA GNDA sky130_fd_pr__nfet_01v8 L=0.15 W=1 nf=1 ad='int((nf+1)/2) * W/nf * 0.29' as='int((nf+2)/2) * W/nf * 0.29' pd='2*int((nf+1)/2) * (W/nf + 0.29)'
+ ps='2*int((nf+2)/2) * (W/nf + 0.29)' nrd='0.29 / W' nrs='0.29 / W' sa=0 sb=0 sd=0 mult=1 m=1
XM39 net1 S VDDA VDDA sky130_fd_pr__pfet_01v8 L=0.15 W=2 nf=1 ad='int((nf+1)/2) * W/nf * 0.29' as='int((nf+2)/2) * W/nf * 0.29' pd='2*int((nf+1)/2) * (W/nf + 0.29)'
+ ps='2*int((nf+2)/2) * (W/nf + 0.29)' nrd='0.29 / W' nrs='0.29 / W' sa=0 sb=0 sd=0 mult=1 m=1
XM40 Q net1 GNDA GNDA sky130_fd_pr__nfet_01v8 L=0.15 W=1 nf=1 ad='int((nf+1)/2) * W/nf * 0.29' as='int((nf+2)/2) * W/nf * 0.29' pd='2*int((nf+1)/2) * (W/nf + 0.29)'
+ ps='2*int((nf+2)/2) * (W/nf + 0.29)' nrd='0.29 / W' nrs='0.29 / W' sa=0 sb=0 sd=0 mult=1 m=1
XM41 Q net1 VDDA VDDA sky130_fd_pr__pfet_01v8 L=0.15 W=2 nf=1 ad='int((nf+1)/2) * W/nf * 0.29' as='int((nf+2)/2) * W/nf * 0.29' pd='2*int((nf+1)/2) * (W/nf + 0.29)'
+ ps='2*int((nf+2)/2) * (W/nf + 0.29)' nrd='0.29 / W' nrs='0.29 / W' sa=0 sb=0 sd=0 mult=1 m=1
.ends


* expanding   symbol:  biasing_circuit.sym # of pins=6
** sym_path: /foss/designs/my_design/projects/ASU/EEE572/schematic/biasing_circuit.sym
** sch_path: /foss/designs/my_design/projects/ASU/EEE572/schematic/biasing_circuit.sch
.subckt biasing_circuit VDDA VBIAS1 VBIAS2 VBIAS3 VBIAS4 GNDA
*.iopin VDDA
*.iopin GNDA
*.opin VBIAS1
*.opin VBIAS2
*.opin VBIAS3
*.opin VBIAS4
XM1 V_REF V_REF V_RES GNDA sky130_fd_pr__nfet_01v8 L=0.3 W=16 nf=8 ad='int((nf+1)/2) * W/nf * 0.29' as='int((nf+2)/2) * W/nf * 0.29'
+ pd='2*int((nf+1)/2) * (W/nf + 0.29)' ps='2*int((nf+2)/2) * (W/nf + 0.29)' nrd='0.29 / W' nrs='0.29 / W' sa=0 sb=0 sd=0 mult=1 m=1
XM2 V_REF_MIR V_REF_MIR GNDA GNDA sky130_fd_pr__nfet_01v8 L=0.3 W=4 nf=2 ad='int((nf+1)/2) * W/nf * 0.29' as='int((nf+2)/2) * W/nf * 0.29'
+ pd='2*int((nf+1)/2) * (W/nf + 0.29)' ps='2*int((nf+2)/2) * (W/nf + 0.29)' nrd='0.29 / W' nrs='0.29 / W' sa=0 sb=0 sd=0 mult=1 m=1
XM5 START_UP V_REF_MIR GNDA GNDA sky130_fd_pr__nfet_01v8 L=0.3 W=4 nf=2 ad='int((nf+1)/2) * W/nf * 0.29' as='int((nf+2)/2) * W/nf * 0.29'
+ pd='2*int((nf+1)/2) * (W/nf + 0.29)' ps='2*int((nf+2)/2) * (W/nf + 0.29)' nrd='0.29 / W' nrs='0.29 / W' sa=0 sb=0 sd=0 mult=1 m=1
XM7 VBIASP START_UP V_REF_MIR GND sky130_fd_pr__nfet_01v8 L=0.3 W=4 nf=2 ad='int((nf+1)/2) * W/nf * 0.29' as='int((nf+2)/2) * W/nf * 0.29'
+ pd='2*int((nf+1)/2) * (W/nf + 0.29)' ps='2*int((nf+2)/2) * (W/nf + 0.29)' nrd='0.29 / W' nrs='0.29 / W' sa=0 sb=0 sd=0 mult=1 m=1
XM6 START_UP START_UP VDDA VDDA sky130_fd_pr__pfet_01v8 L=20 W=0.5 nf=1 ad='int((nf+1)/2) * W/nf * 0.29' as='int((nf+2)/2) * W/nf * 0.29'
+ pd='2*int((nf+1)/2) * (W/nf + 0.29)' ps='2*int((nf+2)/2) * (W/nf + 0.29)' nrd='0.29 / W' nrs='0.29 / W' sa=0 sb=0 sd=0 mult=1 m=1
XM3 V_REF VBIASP VDDA VDDA sky130_fd_pr__pfet_01v8 L=0.3 W=12 nf=6 ad='int((nf+1)/2) * W/nf * 0.29' as='int((nf+2)/2) * W/nf * 0.29'
+ pd='2*int((nf+1)/2) * (W/nf + 0.29)' ps='2*int((nf+2)/2) * (W/nf + 0.29)' nrd='0.29 / W' nrs='0.29 / W' sa=0 sb=0 sd=0 mult=1 m=1
XM4 V_REF_MIR VBIASP VDDA VDDA sky130_fd_pr__pfet_01v8 L=0.3 W=12 nf=6 ad='int((nf+1)/2) * W/nf * 0.29' as='int((nf+2)/2) * W/nf * 0.29'
+ pd='2*int((nf+1)/2) * (W/nf + 0.29)' ps='2*int((nf+2)/2) * (W/nf + 0.29)' nrd='0.29 / W' nrs='0.29 / W' sa=0 sb=0 sd=0 mult=1 m=1
XM8 VBIASP V_REF_MIR GNDA GNDA sky130_fd_pr__nfet_01v8 L=0.3 W=4 nf=2 ad='int((nf+1)/2) * W/nf * 0.29' as='int((nf+2)/2) * W/nf * 0.29'
+ pd='2*int((nf+1)/2) * (W/nf + 0.29)' ps='2*int((nf+2)/2) * (W/nf + 0.29)' nrd='0.29 / W' nrs='0.29 / W' sa=0 sb=0 sd=0 mult=1 m=1
XM9 VBIASP_MIR V_REF GNDA GNDA sky130_fd_pr__nfet_01v8 L=0.3 W=4 nf=2 ad='int((nf+1)/2) * W/nf * 0.29' as='int((nf+2)/2) * W/nf * 0.29'
+ pd='2*int((nf+1)/2) * (W/nf + 0.29)' ps='2*int((nf+2)/2) * (W/nf + 0.29)' nrd='0.29 / W' nrs='0.29 / W' sa=0 sb=0 sd=0 mult=1 m=1
XM10 VBIASP VBIASP_MIR VDDA VDDA sky130_fd_pr__pfet_01v8 L=0.3 W=12 nf=6 ad='int((nf+1)/2) * W/nf * 0.29' as='int((nf+2)/2) * W/nf * 0.29'
+ pd='2*int((nf+1)/2) * (W/nf + 0.29)' ps='2*int((nf+2)/2) * (W/nf + 0.29)' nrd='0.29 / W' nrs='0.29 / W' sa=0 sb=0 sd=0 mult=1 m=1
XM11 VBIASP_MIR VBIASP_MIR VDDA VDDA sky130_fd_pr__pfet_01v8 L=0.3 W=12 nf=6 ad='int((nf+1)/2) * W/nf * 0.29' as='int((nf+2)/2) * W/nf * 0.29'
+ pd='2*int((nf+1)/2) * (W/nf + 0.29)' ps='2*int((nf+2)/2) * (W/nf + 0.29)' nrd='0.29 / W' nrs='0.29 / W' sa=0 sb=0 sd=0 mult=1 m=1
XM12 VBIAS3 VBIAS3 GNDA GNDA sky130_fd_pr__nfet_01v8 L=4 W=4 nf=1 ad='int((nf+1)/2) * W/nf * 0.29' as='int((nf+2)/2) * W/nf * 0.29'
+ pd='2*int((nf+1)/2) * (W/nf + 0.29)' ps='2*int((nf+2)/2) * (W/nf + 0.29)' nrd='0.29 / W' nrs='0.29 / W' sa=0 sb=0 sd=0 mult=1 m=1
XM13 VBIAS3 VBIASP VDDA VDDA sky130_fd_pr__pfet_01v8 L=0.3 W=12 nf=6 ad='int((nf+1)/2) * W/nf * 0.29' as='int((nf+2)/2) * W/nf * 0.29'
+ pd='2*int((nf+1)/2) * (W/nf + 0.29)' ps='2*int((nf+2)/2) * (W/nf + 0.29)' nrd='0.29 / W' nrs='0.29 / W' sa=0 sb=0 sd=0 mult=1 m=1
XM14 net1 VBIAS1 VDDA VDDA sky130_fd_pr__pfet_01v8 L=0.3 W=12 nf=6 ad='int((nf+1)/2) * W/nf * 0.29' as='int((nf+2)/2) * W/nf * 0.29'
+ pd='2*int((nf+1)/2) * (W/nf + 0.29)' ps='2*int((nf+2)/2) * (W/nf + 0.29)' nrd='0.29 / W' nrs='0.29 / W' sa=0 sb=0 sd=0 mult=1 m=1
XM15 VHIGH VBIAS1 VDDA VDDA sky130_fd_pr__pfet_01v8 L=0.3 W=12 nf=6 ad='int((nf+1)/2) * W/nf * 0.29' as='int((nf+2)/2) * W/nf * 0.29'
+ pd='2*int((nf+1)/2) * (W/nf + 0.29)' ps='2*int((nf+2)/2) * (W/nf + 0.29)' nrd='0.29 / W' nrs='0.29 / W' sa=0 sb=0 sd=0 mult=1 m=1
XM16 VNCAS VBIAS2 net1 VDDA sky130_fd_pr__pfet_01v8 L=0.3 W=12 nf=6 ad='int((nf+1)/2) * W/nf * 0.29' as='int((nf+2)/2) * W/nf * 0.29'
+ pd='2*int((nf+1)/2) * (W/nf + 0.29)' ps='2*int((nf+2)/2) * (W/nf + 0.29)' nrd='0.29 / W' nrs='0.29 / W' sa=0 sb=0 sd=0 mult=1 m=1
XM17 VBIAS1 VBIAS2 VHIGH VDDA sky130_fd_pr__pfet_01v8 L=0.3 W=12 nf=6 ad='int((nf+1)/2) * W/nf * 0.29' as='int((nf+2)/2) * W/nf * 0.29'
+ pd='2*int((nf+1)/2) * (W/nf + 0.29)' ps='2*int((nf+2)/2) * (W/nf + 0.29)' nrd='0.29 / W' nrs='0.29 / W' sa=0 sb=0 sd=0 mult=1 m=1
XM18 net2 VBIAS4 GNDA GNDA sky130_fd_pr__nfet_01v8 L=0.3 W=4 nf=2 ad='int((nf+1)/2) * W/nf * 0.29' as='int((nf+2)/2) * W/nf * 0.29'
+ pd='2*int((nf+1)/2) * (W/nf + 0.29)' ps='2*int((nf+2)/2) * (W/nf + 0.29)' nrd='0.29 / W' nrs='0.29 / W' sa=0 sb=0 sd=0 mult=1 m=1
XM19 VNCAS VNCAS net3 GNDA sky130_fd_pr__nfet_01v8 L=0.3 W=4 nf=2 ad='int((nf+1)/2) * W/nf * 0.29' as='int((nf+2)/2) * W/nf * 0.29'
+ pd='2*int((nf+1)/2) * (W/nf + 0.29)' ps='2*int((nf+2)/2) * (W/nf + 0.29)' nrd='0.29 / W' nrs='0.29 / W' sa=0 sb=0 sd=0 mult=1 m=1
XM20 net3 VBIAS3 net4 GNDA sky130_fd_pr__nfet_01v8 L=0.3 W=4 nf=2 ad='int((nf+1)/2) * W/nf * 0.29' as='int((nf+2)/2) * W/nf * 0.29'
+ pd='2*int((nf+1)/2) * (W/nf + 0.29)' ps='2*int((nf+2)/2) * (W/nf + 0.29)' nrd='0.29 / W' nrs='0.29 / W' sa=0 sb=0 sd=0 mult=1 m=1
XM21 net4 net3 GNDA GNDA sky130_fd_pr__nfet_01v8 L=0.3 W=4 nf=2 ad='int((nf+1)/2) * W/nf * 0.29' as='int((nf+2)/2) * W/nf * 0.29' pd='2*int((nf+1)/2) * (W/nf + 0.29)'
+ ps='2*int((nf+2)/2) * (W/nf + 0.29)' nrd='0.29 / W' nrs='0.29 / W' sa=0 sb=0 sd=0 mult=1 m=1
XM25 VBIAS4 VBIASP VDDA VDDA sky130_fd_pr__pfet_01v8 L=0.3 W=12 nf=6 ad='int((nf+1)/2) * W/nf * 0.29' as='int((nf+2)/2) * W/nf * 0.29'
+ pd='2*int((nf+1)/2) * (W/nf + 0.29)' ps='2*int((nf+2)/2) * (W/nf + 0.29)' nrd='0.29 / W' nrs='0.29 / W' sa=0 sb=0 sd=0 mult=1 m=1
XM27 VBIAS4 VBIAS3 VLOW GNDA sky130_fd_pr__nfet_01v8 L=0.3 W=4 nf=2 ad='int((nf+1)/2) * W/nf * 0.29' as='int((nf+2)/2) * W/nf * 0.29'
+ pd='2*int((nf+1)/2) * (W/nf + 0.29)' ps='2*int((nf+2)/2) * (W/nf + 0.29)' nrd='0.29 / W' nrs='0.29 / W' sa=0 sb=0 sd=0 mult=1 m=1
XM28 VLOW VBIAS4 GNDA GNDA sky130_fd_pr__nfet_01v8 L=0.3 W=4 nf=2 ad='int((nf+1)/2) * W/nf * 0.29' as='int((nf+2)/2) * W/nf * 0.29'
+ pd='2*int((nf+1)/2) * (W/nf + 0.29)' ps='2*int((nf+2)/2) * (W/nf + 0.29)' nrd='0.29 / W' nrs='0.29 / W' sa=0 sb=0 sd=0 mult=1 m=1
XM29 Vds2 Vgs2 VDDA VDDA sky130_fd_pr__pfet_01v8 L=0.3 W=12 nf=6 ad='int((nf+1)/2) * W/nf * 0.29' as='int((nf+2)/2) * W/nf * 0.29'
+ pd='2*int((nf+1)/2) * (W/nf + 0.29)' ps='2*int((nf+2)/2) * (W/nf + 0.29)' nrd='0.29 / W' nrs='0.29 / W' sa=0 sb=0 sd=0 mult=1 m=1
XM30 Vgs2 VBIAS2 Vds2 VDDA sky130_fd_pr__pfet_01v8 L=0.3 W=12 nf=6 ad='int((nf+1)/2) * W/nf * 0.29' as='int((nf+2)/2) * W/nf * 0.29'
+ pd='2*int((nf+1)/2) * (W/nf + 0.29)' ps='2*int((nf+2)/2) * (W/nf + 0.29)' nrd='0.29 / W' nrs='0.29 / W' sa=0 sb=0 sd=0 mult=1 m=1
XM31 VPCAS VBIAS3 Vds3 GNDA sky130_fd_pr__nfet_01v8 L=0.3 W=4 nf=2 ad='int((nf+1)/2) * W/nf * 0.29' as='int((nf+2)/2) * W/nf * 0.29'
+ pd='2*int((nf+1)/2) * (W/nf + 0.29)' ps='2*int((nf+2)/2) * (W/nf + 0.29)' nrd='0.29 / W' nrs='0.29 / W' sa=0 sb=0 sd=0 mult=1 m=1
XM32 Vds3 VBIAS4 GNDA GNDA sky130_fd_pr__nfet_01v8 L=0.3 W=4 nf=2 ad='int((nf+1)/2) * W/nf * 0.29' as='int((nf+2)/2) * W/nf * 0.29'
+ pd='2*int((nf+1)/2) * (W/nf + 0.29)' ps='2*int((nf+2)/2) * (W/nf + 0.29)' nrd='0.29 / W' nrs='0.29 / W' sa=0 sb=0 sd=0 mult=1 m=1
XM33 VPCAS VPCAS Vgs2 VDDA sky130_fd_pr__pfet_01v8 L=0.3 W=12 nf=6 ad='int((nf+1)/2) * W/nf * 0.29' as='int((nf+2)/2) * W/nf * 0.29'
+ pd='2*int((nf+1)/2) * (W/nf + 0.29)' ps='2*int((nf+2)/2) * (W/nf + 0.29)' nrd='0.29 / W' nrs='0.29 / W' sa=0 sb=0 sd=0 mult=1 m=1
XM22 VBIAS1 VBIAS3 net2 GNDA sky130_fd_pr__nfet_01v8 L=0.3 W=4 nf=2 ad='int((nf+1)/2) * W/nf * 0.29' as='int((nf+2)/2) * W/nf * 0.29'
+ pd='2*int((nf+1)/2) * (W/nf + 0.29)' ps='2*int((nf+2)/2) * (W/nf + 0.29)' nrd='0.29 / W' nrs='0.29 / W' sa=0 sb=0 sd=0 mult=1 m=1
XM23 VBIAS2 VBIAS2 VDDA VDDA sky130_fd_pr__pfet_01v8 L=1.5 W=12 nf=1 ad='int((nf+1)/2) * W/nf * 0.29' as='int((nf+2)/2) * W/nf * 0.29'
+ pd='2*int((nf+1)/2) * (W/nf + 0.29)' ps='2*int((nf+2)/2) * (W/nf + 0.29)' nrd='0.29 / W' nrs='0.29 / W' sa=0 sb=0 sd=0 mult=1 m=1
XM24 net5 VBIAS4 GNDA GNDA sky130_fd_pr__nfet_01v8 L=0.3 W=4 nf=2 ad='int((nf+1)/2) * W/nf * 0.29' as='int((nf+2)/2) * W/nf * 0.29'
+ pd='2*int((nf+1)/2) * (W/nf + 0.29)' ps='2*int((nf+2)/2) * (W/nf + 0.29)' nrd='0.29 / W' nrs='0.29 / W' sa=0 sb=0 sd=0 mult=1 m=1
XM26 VBIAS2 VBIAS3 net5 GNDA sky130_fd_pr__nfet_01v8 L=0.3 W=4 nf=2 ad='int((nf+1)/2) * W/nf * 0.29' as='int((nf+2)/2) * W/nf * 0.29'
+ pd='2*int((nf+1)/2) * (W/nf + 0.29)' ps='2*int((nf+2)/2) * (W/nf + 0.29)' nrd='0.29 / W' nrs='0.29 / W' sa=0 sb=0 sd=0 mult=1 m=1
XR1 GNDA V_RES GNDA sky130_fd_pr__res_high_po_0p35 L=10 mult=1 m=1
XC1 VBIASP VDDA sky130_fd_pr__cap_mim_m3_1 W=2 L=2 MF=100 m=100
.ends


* expanding   symbol:  error_opamp.sym # of pins=9
** sym_path: /foss/designs/my_design/projects/ASU/EEE572/schematic/error_opamp.sym
** sch_path: /foss/designs/my_design/projects/ASU/EEE572/schematic/error_opamp.sch
.subckt error_opamp VDDA VBIAS1 VBIAS2 ERR_AMP_OUT ERR_AMP_VIN_P ERR_AMP_VIN_M VBIAS3 VBIAS4 GNDA
*.ipin ERR_AMP_VIN_P
*.ipin ERR_AMP_VIN_M
*.ipin VBIAS4
*.ipin VBIAS3
*.ipin VBIAS2
*.ipin VBIAS1
*.iopin VDDA
*.iopin GNDA
*.opin ERR_AMP_OUT
XM37 ERR_V_tail_btw VBIAS4 GNDA GNDA sky130_fd_pr__nfet_01v8 L=0.3 W=12 nf=4 ad='int((nf+1)/2) * W/nf * 0.29' as='int((nf+2)/2) * W/nf * 0.29'
+ pd='2*int((nf+1)/2) * (W/nf + 0.29)' ps='2*int((nf+2)/2) * (W/nf + 0.29)' nrd='0.29 / W' nrs='0.29 / W' sa=0 sb=0 sd=0 mult=3 m=3
XM44 ERR_AMP_Vp VBIAS3 ERR_V_tail_btw GNDA sky130_fd_pr__nfet_01v8 L=0.3 W=12 nf=4 ad='int((nf+1)/2) * W/nf * 0.29' as='int((nf+2)/2) * W/nf * 0.29'
+ pd='2*int((nf+1)/2) * (W/nf + 0.29)' ps='2*int((nf+2)/2) * (W/nf + 0.29)' nrd='0.29 / W' nrs='0.29 / W' sa=0 sb=0 sd=0 mult=3 m=3
XM45 ERR_AMP_Vd1 ERR_AMP_VIN_P ERR_AMP_Vp GNDA sky130_fd_pr__nfet_01v8 L=0.3 W=12 nf=1 ad='int((nf+1)/2) * W/nf * 0.29' as='int((nf+2)/2) * W/nf * 0.29'
+ pd='2*int((nf+1)/2) * (W/nf + 0.29)' ps='2*int((nf+2)/2) * (W/nf + 0.29)' nrd='0.29 / W' nrs='0.29 / W' sa=0 sb=0 sd=0 mult=4 m=4
XM46 ERR_AMP_Vd2 ERR_AMP_VIN_M ERR_AMP_Vp GNDA sky130_fd_pr__nfet_01v8 L=0.3 W=12 nf=1 ad='int((nf+1)/2) * W/nf * 0.29' as='int((nf+2)/2) * W/nf * 0.29'
+ pd='2*int((nf+1)/2) * (W/nf + 0.29)' ps='2*int((nf+2)/2) * (W/nf + 0.29)' nrd='0.29 / W' nrs='0.29 / W' sa=0 sb=0 sd=0 mult=4 m=4
XM47 ERR_AMP_MIR ERR_AMP_Vb1 ERR_AMP_Vd1 GNDA sky130_fd_pr__nfet_01v8 L=0.3 W=12 nf=1 ad='int((nf+1)/2) * W/nf * 0.29' as='int((nf+2)/2) * W/nf * 0.29'
+ pd='2*int((nf+1)/2) * (W/nf + 0.29)' ps='2*int((nf+2)/2) * (W/nf + 0.29)' nrd='0.29 / W' nrs='0.29 / W' sa=0 sb=0 sd=0 mult=4 m=4
XM48 ERR_AMP_OUT ERR_AMP_Vb1 ERR_AMP_Vd2 GNDA sky130_fd_pr__nfet_01v8 L=0.3 W=12 nf=1 ad='int((nf+1)/2) * W/nf * 0.29' as='int((nf+2)/2) * W/nf * 0.29'
+ pd='2*int((nf+1)/2) * (W/nf + 0.29)' ps='2*int((nf+2)/2) * (W/nf + 0.29)' nrd='0.29 / W' nrs='0.29 / W' sa=0 sb=0 sd=0 mult=4 m=4
XM50 ERR_AMP_Vd4 ERR_AMP_MIR VDDA VDDA sky130_fd_pr__pfet_01v8 L=0.3 W=12 nf=1 ad='int((nf+1)/2) * W/nf * 0.29' as='int((nf+2)/2) * W/nf * 0.29'
+ pd='2*int((nf+1)/2) * (W/nf + 0.29)' ps='2*int((nf+2)/2) * (W/nf + 0.29)' nrd='0.29 / W' nrs='0.29 / W' sa=0 sb=0 sd=0 mult=12 m=12
XM51 ERR_AMP_Vd3 ERR_AMP_MIR VDDA VDDA sky130_fd_pr__pfet_01v8 L=0.3 W=12 nf=1 ad='int((nf+1)/2) * W/nf * 0.29' as='int((nf+2)/2) * W/nf * 0.29'
+ pd='2*int((nf+1)/2) * (W/nf + 0.29)' ps='2*int((nf+2)/2) * (W/nf + 0.29)' nrd='0.29 / W' nrs='0.29 / W' sa=0 sb=0 sd=0 mult=12 m=12
XM53 ERR_AMP_OUT VBIAS2 ERR_AMP_Vd4 VDDA sky130_fd_pr__pfet_01v8 L=0.3 W=12 nf=1 ad='int((nf+1)/2) * W/nf * 0.29' as='int((nf+2)/2) * W/nf * 0.29'
+ pd='2*int((nf+1)/2) * (W/nf + 0.29)' ps='2*int((nf+2)/2) * (W/nf + 0.29)' nrd='0.29 / W' nrs='0.29 / W' sa=0 sb=0 sd=0 mult=12 m=12
XM54 ERR_AMP_MIR VBIAS2 ERR_AMP_Vd3 VDDA sky130_fd_pr__pfet_01v8 L=0.3 W=12 nf=1 ad='int((nf+1)/2) * W/nf * 0.29' as='int((nf+2)/2) * W/nf * 0.29'
+ pd='2*int((nf+1)/2) * (W/nf + 0.29)' ps='2*int((nf+2)/2) * (W/nf + 0.29)' nrd='0.29 / W' nrs='0.29 / W' sa=0 sb=0 sd=0 mult=12 m=12
XM55 ERR_AMP_Vb1 ERR_AMP_Vb1 ERR_AMP_Vp GNDA sky130_fd_pr__nfet_01v8 L=1 W=1 nf=1 ad='int((nf+1)/2) * W/nf * 0.29' as='int((nf+2)/2) * W/nf * 0.29'
+ pd='2*int((nf+1)/2) * (W/nf + 0.29)' ps='2*int((nf+2)/2) * (W/nf + 0.29)' nrd='0.29 / W' nrs='0.29 / W' sa=0 sb=0 sd=0 mult=1 m=1
XM56 net1 VBIAS1 VDDA VDDA sky130_fd_pr__pfet_01v8 L=0.3 W=12 nf=4 ad='int((nf+1)/2) * W/nf * 0.29' as='int((nf+2)/2) * W/nf * 0.29'
+ pd='2*int((nf+1)/2) * (W/nf + 0.29)' ps='2*int((nf+2)/2) * (W/nf + 0.29)' nrd='0.29 / W' nrs='0.29 / W' sa=0 sb=0 sd=0 mult=1 m=1
XM57 ERR_AMP_Vb1 VBIAS2 net1 VDDA sky130_fd_pr__pfet_01v8 L=0.3 W=12 nf=4 ad='int((nf+1)/2) * W/nf * 0.29' as='int((nf+2)/2) * W/nf * 0.29'
+ pd='2*int((nf+1)/2) * (W/nf + 0.29)' ps='2*int((nf+2)/2) * (W/nf + 0.29)' nrd='0.29 / W' nrs='0.29 / W' sa=0 sb=0 sd=0 mult=1 m=1
.ends


* expanding   symbol:  sawtooth_generator.sym # of pins=6
** sym_path: /foss/designs/my_design/projects/ASU/EEE572/schematic/sawtooth_generator.sym
** sch_path: /foss/designs/my_design/projects/ASU/EEE572/schematic/sawtooth_generator.sch
.subckt sawtooth_generator VDDA SAWTOOTH_OUT VBIAS1 PULSE_MAG_REF RESET_CLK GNDA
*.ipin VBIAS1
*.iopin VDDA
*.iopin GNDA
*.ipin PULSE_MAG_REF
*.opin SAWTOOTH_OUT
*.opin RESET_CLK
XM58 ST_VD1 ST_VD1 GNDA GNDA sky130_fd_pr__nfet_01v8 L=0.15 W=4 nf=2 ad='int((nf+1)/2) * W/nf * 0.29' as='int((nf+2)/2) * W/nf * 0.29'
+ pd='2*int((nf+1)/2) * (W/nf + 0.29)' ps='2*int((nf+2)/2) * (W/nf + 0.29)' nrd='0.29 / W' nrs='0.29 / W' sa=0 sb=0 sd=0 mult=1 m=1
XM59 ST_VD2 ST_VD2 GNDA GNDA sky130_fd_pr__nfet_01v8 L=0.15 W=4 nf=2 ad='int((nf+1)/2) * W/nf * 0.29' as='int((nf+2)/2) * W/nf * 0.29'
+ pd='2*int((nf+1)/2) * (W/nf + 0.29)' ps='2*int((nf+2)/2) * (W/nf + 0.29)' nrd='0.29 / W' nrs='0.29 / W' sa=0 sb=0 sd=0 mult=1 m=1
XM60 ST_VD2 SAWTOOTH_OUT ST_Vp VDDA sky130_fd_pr__pfet_01v8 L=0.15 W=12 nf=6 ad='int((nf+1)/2) * W/nf * 0.29' as='int((nf+2)/2) * W/nf * 0.29'
+ pd='2*int((nf+1)/2) * (W/nf + 0.29)' ps='2*int((nf+2)/2) * (W/nf + 0.29)' nrd='0.29 / W' nrs='0.29 / W' sa=0 sb=0 sd=0 mult=1 m=1
XM61 ST_VD1 PULSE_MAG_REF ST_Vp VDDA sky130_fd_pr__pfet_01v8 L=0.15 W=12 nf=6 ad='int((nf+1)/2) * W/nf * 0.29' as='int((nf+2)/2) * W/nf * 0.29'
+ pd='2*int((nf+1)/2) * (W/nf + 0.29)' ps='2*int((nf+2)/2) * (W/nf + 0.29)' nrd='0.29 / W' nrs='0.29 / W' sa=0 sb=0 sd=0 mult=1 m=1
XM64 ST_PULL_DOWN ST_AMP_OUT GNDA GNDA sky130_fd_pr__nfet_01v8 L=0.3 W=2 nf=2 ad='int((nf+1)/2) * W/nf * 0.29' as='int((nf+2)/2) * W/nf * 0.29'
+ pd='2*int((nf+1)/2) * (W/nf + 0.29)' ps='2*int((nf+2)/2) * (W/nf + 0.29)' nrd='0.29 / W' nrs='0.29 / W' sa=0 sb=0 sd=0 mult=1 m=1
XM65 RESET_CLK ST_PULL_DOWN GNDA GNDA sky130_fd_pr__nfet_01v8 L=0.15 W=4 nf=2 ad='int((nf+1)/2) * W/nf * 0.29' as='int((nf+2)/2) * W/nf * 0.29'
+ pd='2*int((nf+1)/2) * (W/nf + 0.29)' ps='2*int((nf+2)/2) * (W/nf + 0.29)' nrd='0.29 / W' nrs='0.29 / W' sa=0 sb=0 sd=0 mult=1 m=1
XM66 RESET_CLK ST_PULL_DOWN VDDA VDDA sky130_fd_pr__pfet_01v8 L=0.15 W=12 nf=6 ad='int((nf+1)/2) * W/nf * 0.29' as='int((nf+2)/2) * W/nf * 0.29'
+ pd='2*int((nf+1)/2) * (W/nf + 0.29)' ps='2*int((nf+2)/2) * (W/nf + 0.29)' nrd='0.29 / W' nrs='0.29 / W' sa=0 sb=0 sd=0 mult=1 m=1
XM67 ST_Vp VBIAS1 VDDA VDDA sky130_fd_pr__pfet_01v8 L=0.3 W=12 nf=1 ad='int((nf+1)/2) * W/nf * 0.29' as='int((nf+2)/2) * W/nf * 0.29'
+ pd='2*int((nf+1)/2) * (W/nf + 0.29)' ps='2*int((nf+2)/2) * (W/nf + 0.29)' nrd='0.29 / W' nrs='0.29 / W' sa=0 sb=0 sd=0 mult=1 m=1
XM68 ST_PULL_DOWN VBIAS1 net1 VDDA sky130_fd_pr__pfet_01v8 L=0.3 W=12 nf=1 ad='int((nf+1)/2) * W/nf * 0.29' as='int((nf+2)/2) * W/nf * 0.29'
+ pd='2*int((nf+1)/2) * (W/nf + 0.29)' ps='2*int((nf+2)/2) * (W/nf + 0.29)' nrd='0.29 / W' nrs='0.29 / W' sa=0 sb=0 sd=0 mult=1 m=1
XC2 SAWTOOTH_OUT GNDA sky130_fd_pr__cap_mim_m3_1 W=2 L=2 MF=290 m=290
XM69 SAWTOOTH_OUT RESET_CLK GNDA GNDA sky130_fd_pr__nfet_01v8 L=0.3 W=8 nf=1 ad='int((nf+1)/2) * W/nf * 0.29' as='int((nf+2)/2) * W/nf * 0.29'
+ pd='2*int((nf+1)/2) * (W/nf + 0.29)' ps='2*int((nf+2)/2) * (W/nf + 0.29)' nrd='0.29 / W' nrs='0.29 / W' sa=0 sb=0 sd=0 mult=1 m=1
XM70 SAWTOOTH_OUT VBIAS1 net2 VDDA sky130_fd_pr__pfet_01v8 L=0.3 W=12 nf=1 ad='int((nf+1)/2) * W/nf * 0.29' as='int((nf+2)/2) * W/nf * 0.29'
+ pd='2*int((nf+1)/2) * (W/nf + 0.29)' ps='2*int((nf+2)/2) * (W/nf + 0.29)' nrd='0.29 / W' nrs='0.29 / W' sa=0 sb=0 sd=0 mult=1 m=1
XM62 net2 VBIAS1 net3 VDDA sky130_fd_pr__pfet_01v8 L=0.3 W=12 nf=1 ad='int((nf+1)/2) * W/nf * 0.29' as='int((nf+2)/2) * W/nf * 0.29'
+ pd='2*int((nf+1)/2) * (W/nf + 0.29)' ps='2*int((nf+2)/2) * (W/nf + 0.29)' nrd='0.29 / W' nrs='0.29 / W' sa=0 sb=0 sd=0 mult=1 m=1
XM63 net4 VBIAS1 VDDA VDDA sky130_fd_pr__pfet_01v8 L=0.3 W=12 nf=1 ad='int((nf+1)/2) * W/nf * 0.29' as='int((nf+2)/2) * W/nf * 0.29'
+ pd='2*int((nf+1)/2) * (W/nf + 0.29)' ps='2*int((nf+2)/2) * (W/nf + 0.29)' nrd='0.29 / W' nrs='0.29 / W' sa=0 sb=0 sd=0 mult=1 m=1
XM71 net3 VBIAS1 net4 VDDA sky130_fd_pr__pfet_01v8 L=0.3 W=12 nf=1 ad='int((nf+1)/2) * W/nf * 0.29' as='int((nf+2)/2) * W/nf * 0.29'
+ pd='2*int((nf+1)/2) * (W/nf + 0.29)' ps='2*int((nf+2)/2) * (W/nf + 0.29)' nrd='0.29 / W' nrs='0.29 / W' sa=0 sb=0 sd=0 mult=1 m=1
XM72 net1 VBIAS1 net5 VDDA sky130_fd_pr__pfet_01v8 L=0.3 W=12 nf=1 ad='int((nf+1)/2) * W/nf * 0.29' as='int((nf+2)/2) * W/nf * 0.29'
+ pd='2*int((nf+1)/2) * (W/nf + 0.29)' ps='2*int((nf+2)/2) * (W/nf + 0.29)' nrd='0.29 / W' nrs='0.29 / W' sa=0 sb=0 sd=0 mult=1 m=1
XM73 net5 VBIAS1 VDDA VDDA sky130_fd_pr__pfet_01v8 L=0.3 W=12 nf=1 ad='int((nf+1)/2) * W/nf * 0.29' as='int((nf+2)/2) * W/nf * 0.29'
+ pd='2*int((nf+1)/2) * (W/nf + 0.29)' ps='2*int((nf+2)/2) * (W/nf + 0.29)' nrd='0.29 / W' nrs='0.29 / W' sa=0 sb=0 sd=0 mult=1 m=1
XM74 ST_AMP_MIR ST_VD1 GNDA GNDA sky130_fd_pr__nfet_01v8 L=0.15 W=4 nf=2 ad='int((nf+1)/2) * W/nf * 0.29' as='int((nf+2)/2) * W/nf * 0.29'
+ pd='2*int((nf+1)/2) * (W/nf + 0.29)' ps='2*int((nf+2)/2) * (W/nf + 0.29)' nrd='0.29 / W' nrs='0.29 / W' sa=0 sb=0 sd=0 mult=1 m=1
XM75 ST_AMP_OUT ST_VD2 GNDA GNDA sky130_fd_pr__nfet_01v8 L=0.15 W=4 nf=2 ad='int((nf+1)/2) * W/nf * 0.29' as='int((nf+2)/2) * W/nf * 0.29'
+ pd='2*int((nf+1)/2) * (W/nf + 0.29)' ps='2*int((nf+2)/2) * (W/nf + 0.29)' nrd='0.29 / W' nrs='0.29 / W' sa=0 sb=0 sd=0 mult=1 m=1
XM76 ST_AMP_MIR ST_AMP_MIR VDDA VDDA sky130_fd_pr__pfet_01v8 L=0.15 W=12 nf=6 ad='int((nf+1)/2) * W/nf * 0.29' as='int((nf+2)/2) * W/nf * 0.29'
+ pd='2*int((nf+1)/2) * (W/nf + 0.29)' ps='2*int((nf+2)/2) * (W/nf + 0.29)' nrd='0.29 / W' nrs='0.29 / W' sa=0 sb=0 sd=0 mult=1 m=1
XM77 ST_AMP_OUT ST_AMP_MIR VDDA VDDA sky130_fd_pr__pfet_01v8 L=0.15 W=12 nf=6 ad='int((nf+1)/2) * W/nf * 0.29' as='int((nf+2)/2) * W/nf * 0.29'
+ pd='2*int((nf+1)/2) * (W/nf + 0.29)' ps='2*int((nf+2)/2) * (W/nf + 0.29)' nrd='0.29 / W' nrs='0.29 / W' sa=0 sb=0 sd=0 mult=1 m=1
XM78 ST_VD2 ST_VD1 GNDA GNDA sky130_fd_pr__nfet_01v8 L=0.15 W=4 nf=2 ad='int((nf+1)/2) * W/nf * 0.29' as='int((nf+2)/2) * W/nf * 0.29'
+ pd='2*int((nf+1)/2) * (W/nf + 0.29)' ps='2*int((nf+2)/2) * (W/nf + 0.29)' nrd='0.29 / W' nrs='0.29 / W' sa=0 sb=0 sd=0 mult=1 m=1
XM79 ST_VD1 ST_VD2 GNDA GNDA sky130_fd_pr__nfet_01v8 L=0.15 W=4 nf=2 ad='int((nf+1)/2) * W/nf * 0.29' as='int((nf+2)/2) * W/nf * 0.29'
+ pd='2*int((nf+1)/2) * (W/nf + 0.29)' ps='2*int((nf+2)/2) * (W/nf + 0.29)' nrd='0.29 / W' nrs='0.29 / W' sa=0 sb=0 sd=0 mult=1 m=1
.ends


* expanding   symbol:  bgr_ref_volt.sym # of pins=4
** sym_path: /foss/designs/my_design/projects/ASU/EEE572/schematic/bgr_ref_volt.sym
** sch_path: /foss/designs/my_design/projects/ASU/EEE572/schematic/bgr_ref_volt.sch
.subckt bgr_ref_volt VDDA ERR_AMP_REF PULSE_MAG_REF GNDA
*.opin VDDA
*.opin GNDA
*.opin ERR_AMP_REF
*.opin PULSE_MAG_REF
XM45 ERR_AMP_REF V_TOP VDDA VDDA sky130_fd_pr__pfet_01v8 L=0.5 W=12 nf=4 ad='int((nf+1)/2) * W/nf * 0.29' as='int((nf+2)/2) * W/nf * 0.29'
+ pd='2*int((nf+1)/2) * (W/nf + 0.29)' ps='2*int((nf+2)/2) * (W/nf + 0.29)' nrd='0.29 / W' nrs='0.29 / W' sa=0 sb=0 sd=0 mult=1 m=1
XR4 GNDA ERR_AMP_REF GNDA sky130_fd_pr__res_xhigh_po_0p35 L=11.11 mult=1 m=1
XC1 V_TOP VDDA sky130_fd_pr__cap_mim_m3_1 W=2 L=2 MF=100 m=100
XQ1 GNDA GNDA bgr_Vin- sky130_fd_pr__pnp_05v5_W3p40L3p40 m=1 mult=1
XQ2 GNDA GNDA Vbe2 sky130_fd_pr__pnp_05v5_W3p40L3p40 m=8 mult=8
XM51 bgr_Vin- V_TOP VDDA VDDA sky130_fd_pr__pfet_01v8 L=0.5 W=12 nf=4 ad='int((nf+1)/2) * W/nf * 0.29' as='int((nf+2)/2) * W/nf * 0.29'
+ pd='2*int((nf+1)/2) * (W/nf + 0.29)' ps='2*int((nf+2)/2) * (W/nf + 0.29)' nrd='0.29 / W' nrs='0.29 / W' sa=0 sb=0 sd=0 mult=1 m=1
XM53 bgr_Vin+ V_TOP VDDA VDDA sky130_fd_pr__pfet_01v8 L=0.5 W=12 nf=4 ad='int((nf+1)/2) * W/nf * 0.29' as='int((nf+2)/2) * W/nf * 0.29'
+ pd='2*int((nf+1)/2) * (W/nf + 0.29)' ps='2*int((nf+2)/2) * (W/nf + 0.29)' nrd='0.29 / W' nrs='0.29 / W' sa=0 sb=0 sd=0 mult=1 m=1
XR6 GNDA bgr_Vin+ GNDA sky130_fd_pr__res_xhigh_po_0p35 L=18 mult=1 m=1
XR7 GNDA bgr_Vin- GNDA sky130_fd_pr__res_xhigh_po_0p35 L=18 mult=1 m=1
XM54 START_UP START_UP START_UP_NFET1 GNDA sky130_fd_pr__nfet_01v8 L=10 W=1 nf=1 ad='int((nf+1)/2) * W/nf * 0.29' as='int((nf+2)/2) * W/nf * 0.29'
+ pd='2*int((nf+1)/2) * (W/nf + 0.29)' ps='2*int((nf+2)/2) * (W/nf + 0.29)' nrd='0.29 / W' nrs='0.29 / W' sa=0 sb=0 sd=0 mult=1 m=1