* PEX produced on Wed Jul  9 08:05:41 AM CEST 2025 using /foss/tools/osic-multitool/iic-pex.sh with m=3 and s=1
* NGSPICE file created from bgr.ext - technology: sky130A

.subckt bgr VDDA ERR_AMP_REF V_CMFB_S3 VB1_CUR_BIAS TAIL_CUR_MIR_BIAS V_CMFB_S1 ERR_AMP_CUR_BIAS
+ VB3_CUR_BIAS V_CMFB_S4 V_CMFB_S2 VB2_CUR_BIAS GNDA
X0 1st_Vout_2.t11 cap_res2.t20 sky130_fd_pr__cap_mim_m3_1 l=2 w=2
X1 GNDA.t75 NFET_GATE_10uA.t5 V_CMFB_S2.t3 GNDA.t74 sky130_fd_pr__nfet_01v8 ad=0.2 pd=1.4 as=0.2 ps=1.4 w=1 l=0.15
X2 V_mir2.t14 V_mir2.t13 VDDA.t130 VDDA.t129 sky130_fd_pr__pfet_01v8 ad=0.2 pd=1.4 as=0.2 ps=1.4 w=1 l=0.2
X3 VB2_CUR_BIAS.t5 NFET_GATE_10uA.t6 GNDA.t73 GNDA.t72 sky130_fd_pr__nfet_01v8 ad=0.2 pd=1.4 as=0.2 ps=1.4 w=1 l=0.15
X4 a_38570_n6530.t1 a_38690_n7778.t1 GNDA.t9 sky130_fd_pr__res_xhigh_po_0p35 l=4.2
X5 GNDA.t104 GNDA.t102 V_CMFB_S2.t0 GNDA.t103 sky130_fd_pr__nfet_01v8 ad=0.4 pd=2.8 as=0.2 ps=1.4 w=1 l=0.15
X6 1st_Vout_1.t11 cap_res1.t20 sky130_fd_pr__cap_mim_m3_1 l=2 w=2
X7 GNDA.t71 NFET_GATE_10uA.t7 V_CMFB_S4.t2 GNDA.t70 sky130_fd_pr__nfet_01v8 ad=0.2 pd=1.4 as=0.2 ps=1.4 w=1 l=0.15
X8 V_p_1.t10 Vin+.t6 1st_Vout_1.t8 GNDA.t108 sky130_fd_pr__nfet_01v8 ad=0.1 pd=0.9 as=0.1 ps=0.9 w=0.5 l=0.2
X9 VB2_CUR_BIAS.t4 NFET_GATE_10uA.t8 GNDA.t69 GNDA.t68 sky130_fd_pr__nfet_01v8 ad=0.2 pd=1.4 as=0.2 ps=1.4 w=1 l=0.15
X10 V_p_2.t4 ERR_AMP_REF.t7 V_mir2.t16 GNDA.t112 sky130_fd_pr__nfet_01v8 ad=0.1 pd=0.9 as=0.1 ps=0.9 w=0.5 l=0.2
X11 1st_Vout_1.t12 cap_res1.t19 sky130_fd_pr__cap_mim_m3_1 l=2 w=2
X12 GNDA.t29 START_UP_NFET1.t0 START_UP_NFET1.t1 GNDA.t28 sky130_fd_pr__nfet_01v8 ad=0.4 pd=2.8 as=0.2 ps=1.4 w=1 l=10
X13 VDDA.t178 VDDA.t176 V_CMFB_S1.t4 VDDA.t177 sky130_fd_pr__pfet_01v8 ad=0.4 pd=2.8 as=0.2 ps=1.4 w=1 l=0.15
X14 V_TOP.t13 START_UP.t6 Vin-.t7 VDDA.t34 sky130_fd_pr__pfet_01v8 ad=0.2 pd=1.4 as=0.2 ps=1.4 w=1 l=0.15
X15 V_CMFB_S3.t5 VDDA.t173 VDDA.t175 VDDA.t174 sky130_fd_pr__pfet_01v8 ad=0.2 pd=1.4 as=0.4 ps=2.8 w=1 l=0.15
X16 GNDA.t67 NFET_GATE_10uA.t9 VB3_CUR_BIAS.t4 GNDA.t66 sky130_fd_pr__nfet_01v8 ad=0.2 pd=1.4 as=0.2 ps=1.4 w=1 l=0.15
X17 VB3_CUR_BIAS.t3 NFET_GATE_10uA.t10 GNDA.t65 GNDA.t64 sky130_fd_pr__nfet_01v8 ad=0.2 pd=1.4 as=0.2 ps=1.4 w=1 l=0.15
X18 NFET_GATE_10uA.t0 GNDA.t99 GNDA.t101 GNDA.t100 sky130_fd_pr__nfet_01v8 ad=0.2 pd=1.4 as=0.4 ps=2.8 w=1 l=0.15
X19 1st_Vout_1.t13 cap_res1.t18 sky130_fd_pr__cap_mim_m3_1 l=2 w=2
X20 GNDA.t63 NFET_GATE_10uA.t2 NFET_GATE_10uA.t3 GNDA.t62 sky130_fd_pr__nfet_01v8 ad=0.2 pd=1.4 as=0.2 ps=1.4 w=1 l=0.15
X21 1st_Vout_2.t7 V_mir2.t17 VDDA.t128 VDDA.t127 sky130_fd_pr__pfet_01v8 ad=0.2 pd=1.4 as=0.2 ps=1.4 w=1 l=0.2
X22 V_p_1.t0 Vin-.t8 V_mir1.t16 GNDA.t2 sky130_fd_pr__nfet_01v8 ad=0.1 pd=0.9 as=0.1 ps=0.9 w=0.5 l=0.2
X23 V_p_2.t10 VDDA.t214 GNDA.t18 GNDA.t17 sky130_fd_pr__nfet_01v8 ad=1 pd=5.8 as=1 ps=5.8 w=2.5 l=5
X24 1st_Vout_2.t12 cap_res2.t19 sky130_fd_pr__cap_mim_m3_1 l=2 w=2
X25 V_CUR_REF_REG.t0 a_32320_n7778.t1 GNDA.t20 sky130_fd_pr__res_xhigh_po_0p35 l=4
X26 VB2_CUR_BIAS.t7 GNDA.t96 GNDA.t98 GNDA.t97 sky130_fd_pr__nfet_01v8 ad=0.2 pd=1.4 as=0.4 ps=2.8 w=1 l=0.15
X27 1st_Vout_2.t13 cap_res2.t18 sky130_fd_pr__cap_mim_m3_1 l=2 w=2
X28 1st_Vout_2.t14 cap_res2.t17 sky130_fd_pr__cap_mim_m3_1 l=2 w=2
X29 VDDA.t187 V_TOP.t14 ERR_AMP_REF.t6 VDDA.t186 sky130_fd_pr__pfet_01v8 ad=0.6 pd=3.4 as=0.6 ps=3.4 w=3 l=0.5
X30 1st_Vout_2.t15 cap_res2.t16 sky130_fd_pr__cap_mim_m3_1 l=2 w=2
X31 VDDA.t92 PFET_GATE_10uA.t10 V_CMFB_S1.t2 VDDA.t91 sky130_fd_pr__pfet_01v8 ad=0.2 pd=1.4 as=0.2 ps=1.4 w=1 l=0.15
X32 1st_Vout_2.t16 cap_res2.t15 sky130_fd_pr__cap_mim_m3_1 l=2 w=2
X33 VB2_CUR_BIAS.t3 NFET_GATE_10uA.t11 GNDA.t61 GNDA.t60 sky130_fd_pr__nfet_01v8 ad=0.2 pd=1.4 as=0.2 ps=1.4 w=1 l=0.15
X34 1st_Vout_1.t14 cap_res1.t17 sky130_fd_pr__cap_mim_m3_1 l=2 w=2
X35 VDDA.t76 PFET_GATE_10uA.t11 VB1_CUR_BIAS.t1 VDDA.t75 sky130_fd_pr__pfet_01v8 ad=0.2 pd=1.4 as=0.2 ps=1.4 w=1 l=0.15
X36 VDDA.t172 VDDA.t170 VB1_CUR_BIAS.t3 VDDA.t171 sky130_fd_pr__pfet_01v8 ad=0.4 pd=2.8 as=0.2 ps=1.4 w=1 l=0.15
X37 1st_Vout_2.t17 cap_res2.t14 sky130_fd_pr__cap_mim_m3_1 l=2 w=2
X38 1st_Vout_2.t18 cap_res2.t13 sky130_fd_pr__cap_mim_m3_1 l=2 w=2
X39 1st_Vout_1.t15 cap_res1.t16 sky130_fd_pr__cap_mim_m3_1 l=2 w=2
X40 VDDA.t189 V_mir1.t10 V_mir1.t11 VDDA.t188 sky130_fd_pr__pfet_01v8 ad=0.2 pd=1.4 as=0.2 ps=1.4 w=1 l=0.2
X41 Vin+.t3 V_TOP.t15 VDDA.t45 VDDA.t44 sky130_fd_pr__pfet_01v8 ad=0.6 pd=3.4 as=0.6 ps=3.4 w=3 l=0.5
X42 1st_Vout_1.t16 cap_res1.t15 sky130_fd_pr__cap_mim_m3_1 l=2 w=2
X43 V_TOP.t16 VDDA.t58 sky130_fd_pr__cap_mim_m3_1 l=2 w=2
X44 V_mir1.t15 Vin-.t9 V_p_1.t1 GNDA.t3 sky130_fd_pr__nfet_01v8 ad=0.1 pd=0.9 as=0.1 ps=0.9 w=0.5 l=0.2
X45 1st_Vout_1.t17 cap_res1.t14 sky130_fd_pr__cap_mim_m3_1 l=2 w=2
X46 1st_Vout_1.t18 cap_res1.t13 sky130_fd_pr__cap_mim_m3_1 l=2 w=2
X47 TAIL_CUR_MIR_BIAS.t7 PFET_GATE_10uA.t12 VDDA.t31 VDDA.t30 sky130_fd_pr__pfet_01v8 ad=0.2 pd=1.4 as=0.2 ps=1.4 w=1 l=0.15
X48 VDDA.t126 V_mir2.t3 V_mir2.t4 VDDA.t125 sky130_fd_pr__pfet_01v8 ad=0.2 pd=1.4 as=0.2 ps=1.4 w=1 l=0.2
X49 V_TOP.t17 VDDA.t12 sky130_fd_pr__cap_mim_m3_1 l=2 w=2
X50 ERR_AMP_REF.t4 VDDA.t167 VDDA.t169 VDDA.t168 sky130_fd_pr__pfet_01v8 ad=0.6 pd=3.4 as=1.2 ps=6.8 w=3 l=0.5
X51 V_mir1.t14 Vin-.t10 V_p_1.t2 GNDA.t19 sky130_fd_pr__nfet_01v8 ad=0.1 pd=0.9 as=0.1 ps=0.9 w=0.5 l=0.2
X52 1st_Vout_1.t4 V_mir1.t17 VDDA.t60 VDDA.t59 sky130_fd_pr__pfet_01v8 ad=0.2 pd=1.4 as=0.2 ps=1.4 w=1 l=0.2
X53 V_TOP.t18 VDDA.t27 sky130_fd_pr__cap_mim_m3_1 l=2 w=2
X54 1st_Vout_2.t19 cap_res2.t12 sky130_fd_pr__cap_mim_m3_1 l=2 w=2
X55 V_CMFB_S3.t3 PFET_GATE_10uA.t13 VDDA.t100 VDDA.t99 sky130_fd_pr__pfet_01v8 ad=0.2 pd=1.4 as=0.2 ps=1.4 w=1 l=0.15
X56 VDDA.t22 V_TOP.t19 Vin+.t2 VDDA.t21 sky130_fd_pr__pfet_01v8 ad=0.6 pd=3.4 as=0.6 ps=3.4 w=3 l=0.5
X57 V_TOP.t20 VDDA.t72 sky130_fd_pr__cap_mim_m3_1 l=2 w=2
X58 sky130_fd_pr__rf_pnp_05v5_W3p40L3p40_25.Emitter.t0 Vin+.t0 GNDA.t1 sky130_fd_pr__res_xhigh_po_0p35 l=2.3
X59 VDDA.t193 PFET_GATE_10uA.t14 NFET_GATE_10uA.t4 VDDA.t192 sky130_fd_pr__pfet_01v8 ad=0.2 pd=1.4 as=0.2 ps=1.4 w=1 l=0.15
X60 PFET_GATE_10uA.t9 1st_Vout_2.t20 VDDA.t213 VDDA.t212 sky130_fd_pr__pfet_01v8 ad=0.2 pd=1.4 as=0.2 ps=1.4 w=1 l=0.2
X61 1st_Vout_1.t9 Vin+.t7 V_p_1.t9 GNDA.t109 sky130_fd_pr__nfet_01v8 ad=0.1 pd=0.9 as=0.1 ps=0.9 w=0.5 l=0.2
X62 VDDA.t124 V_mir2.t18 1st_Vout_2.t0 VDDA.t123 sky130_fd_pr__pfet_01v8 ad=0.2 pd=1.4 as=0.2 ps=1.4 w=1 l=0.2
X63 GNDA.t95 GNDA.t93 VB3_CUR_BIAS.t5 GNDA.t94 sky130_fd_pr__nfet_01v8 ad=0.4 pd=2.8 as=0.2 ps=1.4 w=1 l=0.15
X64 TAIL_CUR_MIR_BIAS.t6 PFET_GATE_10uA.t15 VDDA.t49 VDDA.t48 sky130_fd_pr__pfet_01v8 ad=0.2 pd=1.4 as=0.2 ps=1.4 w=1 l=0.15
X65 VDDA.t211 1st_Vout_2.t21 PFET_GATE_10uA.t8 VDDA.t210 sky130_fd_pr__pfet_01v8 ad=0.2 pd=1.4 as=0.2 ps=1.4 w=1 l=0.2
X66 V_p_1.t8 Vin+.t8 1st_Vout_1.t10 GNDA.t111 sky130_fd_pr__nfet_01v8 ad=0.1 pd=0.9 as=0.2 ps=1.8 w=0.5 l=0.2
X67 V_CMFB_S3.t2 PFET_GATE_10uA.t16 VDDA.t66 VDDA.t65 sky130_fd_pr__pfet_01v8 ad=0.2 pd=1.4 as=0.2 ps=1.4 w=1 l=0.15
X68 VDDA.t166 VDDA.t164 V_TOP.t5 VDDA.t165 sky130_fd_pr__pfet_01v8 ad=0.4 pd=2.8 as=0.2 ps=1.4 w=1 l=0.2
X69 V_CMFB_S2.t2 NFET_GATE_10uA.t12 GNDA.t59 GNDA.t58 sky130_fd_pr__nfet_01v8 ad=0.2 pd=1.4 as=0.2 ps=1.4 w=1 l=0.15
X70 V_CMFB_S2.t1 NFET_GATE_10uA.t13 GNDA.t57 GNDA.t56 sky130_fd_pr__nfet_01v8 ad=0.2 pd=1.4 as=0.2 ps=1.4 w=1 l=0.15
X71 V_CMFB_S1.t0 PFET_GATE_10uA.t17 VDDA.t29 VDDA.t28 sky130_fd_pr__pfet_01v8 ad=0.2 pd=1.4 as=0.2 ps=1.4 w=1 l=0.15
X72 Vin+.t1 a_38040_n7928.t0 GNDA.t7 sky130_fd_pr__res_xhigh_po_0p35 l=6
X73 1st_Vout_1.t7 V_mir1.t18 VDDA.t104 VDDA.t103 sky130_fd_pr__pfet_01v8 ad=0.2 pd=1.4 as=0.2 ps=1.4 w=1 l=0.2
X74 TAIL_CUR_MIR_BIAS.t5 PFET_GATE_10uA.t18 VDDA.t24 VDDA.t23 sky130_fd_pr__pfet_01v8 ad=0.2 pd=1.4 as=0.2 ps=1.4 w=1 l=0.15
X75 V_mir1.t9 V_mir1.t8 VDDA.t36 VDDA.t35 sky130_fd_pr__pfet_01v8 ad=0.2 pd=1.4 as=0.2 ps=1.4 w=1 l=0.2
X76 V_TOP.t21 VDDA.t43 sky130_fd_pr__cap_mim_m3_1 l=2 w=2
X77 GNDA.t105 VDDA.t215 PFET_GATE_10uA.t1 GNDA.t21 sky130_fd_pr__nfet_01v8 ad=1 pd=5.8 as=1 ps=5.8 w=2.5 l=5
X78 VDDA.t15 1st_Vout_1.t19 V_TOP.t11 VDDA.t14 sky130_fd_pr__pfet_01v8 ad=0.2 pd=1.4 as=0.2 ps=1.4 w=1 l=0.2
X79 PFET_GATE_10uA.t7 1st_Vout_2.t22 VDDA.t209 VDDA.t208 sky130_fd_pr__pfet_01v8 ad=0.2 pd=1.4 as=0.2 ps=1.4 w=1 l=0.2
X80 V_p_2.t3 ERR_AMP_REF.t8 V_mir2.t1 GNDA.t21 sky130_fd_pr__nfet_01v8 ad=0.1 pd=0.9 as=0.2 ps=1.8 w=0.5 l=0.2
X81 V_TOP.t1 VDDA.t216 GNDA.t106 GNDA.t32 sky130_fd_pr__nfet_01v8 ad=1 pd=5.8 as=1.01 ps=6.15 w=2.5 l=5
X82 V_TOP.t22 VDDA.t26 sky130_fd_pr__cap_mim_m3_1 l=2 w=2
X83 VB3_CUR_BIAS.t2 NFET_GATE_10uA.t14 GNDA.t55 GNDA.t54 sky130_fd_pr__nfet_01v8 ad=0.2 pd=1.4 as=0.2 ps=1.4 w=1 l=0.15
X84 GNDA.t53 NFET_GATE_10uA.t15 ERR_AMP_CUR_BIAS.t1 GNDA.t52 sky130_fd_pr__nfet_01v8 ad=0.2 pd=1.4 as=0.2 ps=1.4 w=1 l=0.15
X85 VDDA.t38 V_mir1.t19 1st_Vout_1.t1 VDDA.t37 sky130_fd_pr__pfet_01v8 ad=0.2 pd=1.4 as=0.2 ps=1.4 w=1 l=0.2
X86 V_p_1.t7 Vin+.t9 1st_Vout_1.t2 GNDA.t26 sky130_fd_pr__nfet_01v8 ad=0.1 pd=0.9 as=0.1 ps=0.9 w=0.5 l=0.2
X87 1st_Vout_2.t23 cap_res2.t11 sky130_fd_pr__cap_mim_m3_1 l=2 w=2
X88 1st_Vout_2.t24 cap_res2.t10 sky130_fd_pr__cap_mim_m3_1 l=2 w=2
X89 V_CMFB_S1.t3 VDDA.t161 VDDA.t163 VDDA.t162 sky130_fd_pr__pfet_01v8 ad=0.2 pd=1.4 as=0.4 ps=2.8 w=1 l=0.15
X90 VDDA.t122 V_mir2.t19 1st_Vout_2.t9 VDDA.t121 sky130_fd_pr__pfet_01v8 ad=0.2 pd=1.4 as=0.2 ps=1.4 w=1 l=0.2
X91 1st_Vout_2.t25 cap_res2.t9 sky130_fd_pr__cap_mim_m3_1 l=2 w=2
X92 VDDA.t207 1st_Vout_2.t26 PFET_GATE_10uA.t6 VDDA.t206 sky130_fd_pr__pfet_01v8 ad=0.2 pd=1.4 as=0.2 ps=1.4 w=1 l=0.2
X93 V_p_2.t5 V_CUR_REF_REG.t3 1st_Vout_2.t2 GNDA.t22 sky130_fd_pr__nfet_01v8 ad=0.1 pd=0.9 as=0.1 ps=0.9 w=0.5 l=0.2
X94 1st_Vout_1.t20 cap_res1.t12 sky130_fd_pr__cap_mim_m3_1 l=2 w=2
X95 NFET_GATE_10uA.t1 VDDA.t158 VDDA.t160 VDDA.t159 sky130_fd_pr__pfet_01v8 ad=0.2 pd=1.4 as=0.4 ps=2.8 w=1 l=0.15
X96 TAIL_CUR_MIR_BIAS.t4 PFET_GATE_10uA.t19 VDDA.t74 VDDA.t73 sky130_fd_pr__pfet_01v8 ad=0.2 pd=1.4 as=0.2 ps=1.4 w=1 l=0.15
X97 V_TOP.t4 VDDA.t155 VDDA.t157 VDDA.t156 sky130_fd_pr__pfet_01v8 ad=0.2 pd=1.4 as=0.4 ps=2.8 w=1 l=0.2
X98 1st_Vout_2.t27 cap_res2.t8 sky130_fd_pr__cap_mim_m3_1 l=2 w=2
X99 V_CUR_REF_REG.t2 PFET_GATE_10uA.t20 VDDA.t201 VDDA.t200 sky130_fd_pr__pfet_01v8 ad=0.2 pd=1.4 as=0.2 ps=1.4 w=1 l=0.15
X100 1st_Vout_1.t21 cap_res1.t11 sky130_fd_pr__cap_mim_m3_1 l=2 w=2
X101 V_TOP.t23 VDDA.t20 sky130_fd_pr__cap_mim_m3_1 l=2 w=2
X102 V_CMFB_S4.t1 NFET_GATE_10uA.t16 GNDA.t51 GNDA.t50 sky130_fd_pr__nfet_01v8 ad=0.2 pd=1.4 as=0.2 ps=1.4 w=1 l=0.15
X103 V_mir2.t6 V_mir2.t5 VDDA.t120 VDDA.t119 sky130_fd_pr__pfet_01v8 ad=0.2 pd=1.4 as=0.2 ps=1.4 w=1 l=0.2
X104 1st_Vout_1.t22 cap_res1.t10 sky130_fd_pr__cap_mim_m3_1 l=2 w=2
X105 GNDA.t49 NFET_GATE_10uA.t17 V_CMFB_S4.t0 GNDA.t48 sky130_fd_pr__nfet_01v8 ad=0.2 pd=1.4 as=0.2 ps=1.4 w=1 l=0.15
X106 1st_Vout_2.t1 V_mir2.t20 VDDA.t118 VDDA.t117 sky130_fd_pr__pfet_01v8 ad=0.2 pd=1.4 as=0.2 ps=1.4 w=1 l=0.2
X107 1st_Vout_1.t23 cap_res1.t9 sky130_fd_pr__cap_mim_m3_1 l=2 w=2
X108 GNDA.t77 GNDA.t91 sky130_fd_pr__rf_pnp_05v5_W3p40L3p40_25.Emitter.t8 sky130_fd_pr__pnp_05v5_W3p40L3p40
**devattr s=462400,2720
X109 V_TOP.t24 VDDA.t199 sky130_fd_pr__cap_mim_m3_1 l=2 w=2
X110 1st_Vout_2.t28 cap_res2.t7 sky130_fd_pr__cap_mim_m3_1 l=2 w=2
X111 Vin-.t0 a_32970_n7928.t0 GNDA.t11 sky130_fd_pr__res_xhigh_po_0p35 l=6
X112 GNDA.t77 GNDA.t90 sky130_fd_pr__rf_pnp_05v5_W3p40L3p40_25.Emitter.t7 sky130_fd_pr__pnp_05v5_W3p40L3p40
**devattr s=462400,2720
X113 VDDA.t154 VDDA.t152 V_TOP.t3 VDDA.t153 sky130_fd_pr__pfet_01v8 ad=0.45 pd=2.9 as=0.2 ps=1.4 w=1 l=0.15
X114 VDDA.t52 V_TOP.t25 Vin-.t3 VDDA.t51 sky130_fd_pr__pfet_01v8 ad=0.6 pd=3.4 as=0.6 ps=3.4 w=3 l=0.5
X115 V_TOP.t26 VDDA.t50 sky130_fd_pr__cap_mim_m3_1 l=2 w=2
X116 a_32440_n6570.t0 a_32320_n7778.t0 GNDA.t0 sky130_fd_pr__res_xhigh_po_0p35 l=4
X117 GNDA.t77 GNDA.t92 sky130_fd_pr__rf_pnp_05v5_W3p40L3p40_25.Emitter.t6 sky130_fd_pr__pnp_05v5_W3p40L3p40
**devattr s=462400,2720
X118 ERR_AMP_REF.t5 V_TOP.t27 VDDA.t182 VDDA.t181 sky130_fd_pr__pfet_01v8 ad=0.6 pd=3.4 as=0.6 ps=3.4 w=3 l=0.5
X119 VDDA.t84 V_mir1.t20 1st_Vout_1.t5 VDDA.t83 sky130_fd_pr__pfet_01v8 ad=0.2 pd=1.4 as=0.2 ps=1.4 w=1 l=0.2
X120 1st_Vout_2.t10 V_CUR_REF_REG.t4 V_p_2.t9 GNDA.t35 sky130_fd_pr__nfet_01v8 ad=0.1 pd=0.9 as=0.1 ps=0.9 w=0.5 l=0.2
X121 VDDA.t6 V_mir1.t6 V_mir1.t7 VDDA.t5 sky130_fd_pr__pfet_01v8 ad=0.2 pd=1.4 as=0.2 ps=1.4 w=1 l=0.2
X122 Vin+.t5 V_TOP.t28 VDDA.t185 VDDA.t184 sky130_fd_pr__pfet_01v8 ad=0.6 pd=3.4 as=0.6 ps=3.4 w=3 l=0.5
X123 V_mir1.t13 Vin-.t11 V_p_1.t4 GNDA.t32 sky130_fd_pr__nfet_01v8 ad=0.2 pd=1.8 as=0.1 ps=0.9 w=0.5 l=0.2
X124 V_TOP.t29 VDDA.t198 sky130_fd_pr__cap_mim_m3_1 l=2 w=2
X125 a_38570_n6530.t0 GNDA.t10 GNDA.t9 sky130_fd_pr__res_xhigh_po_0p35 l=4.2
X126 a_33090_n6320.t0 GNDA.t16 GNDA.t15 sky130_fd_pr__res_xhigh_po_0p35 l=6
X127 V_mir1.t5 V_mir1.t4 VDDA.t98 VDDA.t97 sky130_fd_pr__pfet_01v8 ad=0.2 pd=1.4 as=0.2 ps=1.4 w=1 l=0.2
X128 VDDA.t151 VDDA.t149 PFET_GATE_10uA.t3 VDDA.t150 sky130_fd_pr__pfet_01v8 ad=0.4 pd=2.8 as=0.2 ps=1.4 w=1 l=0.2
X129 GNDA.t14 VDDA.t217 V_p_1.t5 GNDA.t13 sky130_fd_pr__nfet_01v8 ad=1.01 pd=6.15 as=1 ps=5.8 w=2.5 l=5
X130 V_CMFB_S1.t1 PFET_GATE_10uA.t21 VDDA.t64 VDDA.t63 sky130_fd_pr__pfet_01v8 ad=0.2 pd=1.4 as=0.2 ps=1.4 w=1 l=0.15
X131 Vin-.t6 START_UP.t7 V_TOP.t12 VDDA.t13 sky130_fd_pr__pfet_01v8 ad=0.2 pd=1.4 as=0.2 ps=1.4 w=1 l=0.15
X132 V_TOP.t10 1st_Vout_1.t24 VDDA.t54 VDDA.t53 sky130_fd_pr__pfet_01v8 ad=0.2 pd=1.4 as=0.2 ps=1.4 w=1 l=0.2
X133 V_mir2.t15 ERR_AMP_REF.t9 V_p_2.t2 GNDA.t107 sky130_fd_pr__nfet_01v8 ad=0.1 pd=0.9 as=0.1 ps=0.9 w=0.5 l=0.2
X134 Vin-.t4 V_TOP.t30 VDDA.t57 VDDA.t56 sky130_fd_pr__pfet_01v8 ad=0.6 pd=3.4 as=0.6 ps=3.4 w=3 l=0.5
X135 a_37920_n6320.t0 GNDA.t8 GNDA.t7 sky130_fd_pr__res_xhigh_po_0p35 l=6
X136 V_mir2.t8 V_mir2.t7 VDDA.t116 VDDA.t115 sky130_fd_pr__pfet_01v8 ad=0.2 pd=1.4 as=0.2 ps=1.4 w=1 l=0.2
X137 PFET_GATE_10uA.t0 cap_res2.t0 GNDA.t12 sky130_fd_pr__res_high_po_0p35 l=2.05
X138 VDDA.t11 V_TOP.t31 START_UP.t0 VDDA.t10 sky130_fd_pr__pfet_01v8 ad=0.6 pd=3.4 as=0.6 ps=3.4 w=3 l=0.5
X139 1st_Vout_2.t8 V_mir2.t21 VDDA.t114 VDDA.t113 sky130_fd_pr__pfet_01v8 ad=0.2 pd=1.4 as=0.2 ps=1.4 w=1 l=0.2
X140 V_TOP.t32 VDDA.t7 sky130_fd_pr__cap_mim_m3_1 l=2 w=2
X141 VDDA.t205 1st_Vout_2.t29 PFET_GATE_10uA.t5 VDDA.t204 sky130_fd_pr__pfet_01v8 ad=0.2 pd=1.4 as=0.2 ps=1.4 w=1 l=0.2
X142 V_TOP.t0 cap_res1.t0 GNDA.t30 sky130_fd_pr__res_high_po_0p35 l=2.05
X143 V_TOP.t33 VDDA.t0 sky130_fd_pr__cap_mim_m3_1 l=2 w=2
X144 VDDA.t4 V_TOP.t34 ERR_AMP_REF.t1 VDDA.t3 sky130_fd_pr__pfet_01v8 ad=0.6 pd=3.4 as=0.6 ps=3.4 w=3 l=0.5
X145 VDDA.t112 V_mir2.t11 V_mir2.t12 VDDA.t111 sky130_fd_pr__pfet_01v8 ad=0.2 pd=1.4 as=0.2 ps=1.4 w=1 l=0.2
X146 VDDA.t90 PFET_GATE_10uA.t22 TAIL_CUR_MIR_BIAS.t3 VDDA.t89 sky130_fd_pr__pfet_01v8 ad=0.2 pd=1.4 as=0.2 ps=1.4 w=1 l=0.15
X147 V_TOP.t35 VDDA.t16 sky130_fd_pr__cap_mim_m3_1 l=2 w=2
X148 1st_Vout_2.t30 cap_res2.t6 sky130_fd_pr__cap_mim_m3_1 l=2 w=2
X149 GNDA.t47 NFET_GATE_10uA.t18 VB2_CUR_BIAS.t2 GNDA.t46 sky130_fd_pr__nfet_01v8 ad=0.2 pd=1.4 as=0.2 ps=1.4 w=1 l=0.15
X150 V_TOP.t36 VDDA.t69 sky130_fd_pr__cap_mim_m3_1 l=2 w=2
X151 VDDA.t80 V_TOP.t37 START_UP.t1 VDDA.t79 sky130_fd_pr__pfet_01v8 ad=0.6 pd=3.4 as=0.6 ps=3.4 w=3 l=0.5
X152 VB1_CUR_BIAS.t2 VDDA.t146 VDDA.t148 VDDA.t147 sky130_fd_pr__pfet_01v8 ad=0.2 pd=1.4 as=0.4 ps=2.8 w=1 l=0.15
X153 VB1_CUR_BIAS.t0 PFET_GATE_10uA.t23 VDDA.t86 VDDA.t85 sky130_fd_pr__pfet_01v8 ad=0.2 pd=1.4 as=0.2 ps=1.4 w=1 l=0.15
X154 GNDA.t89 GNDA.t87 VB2_CUR_BIAS.t6 GNDA.t88 sky130_fd_pr__nfet_01v8 ad=0.4 pd=2.8 as=0.2 ps=1.4 w=1 l=0.15
X155 VDDA.t145 VDDA.t143 V_CMFB_S3.t4 VDDA.t144 sky130_fd_pr__pfet_01v8 ad=0.4 pd=2.8 as=0.2 ps=1.4 w=1 l=0.15
X156 START_UP_NFET1.t1 START_UP.t4 START_UP.t5 GNDA.t110 sky130_fd_pr__nfet_01v8 ad=0.2 pd=1.4 as=0.4 ps=2.8 w=1 l=10
X157 1st_Vout_1.t25 cap_res1.t8 sky130_fd_pr__cap_mim_m3_1 l=2 w=2
X158 PFET_GATE_10uA.t2 VDDA.t140 VDDA.t142 VDDA.t141 sky130_fd_pr__pfet_01v8 ad=0.2 pd=1.4 as=0.4 ps=2.8 w=1 l=0.2
X159 1st_Vout_2.t31 cap_res2.t5 sky130_fd_pr__cap_mim_m3_1 l=2 w=2
X160 V_p_1.t3 Vin-.t12 V_mir1.t12 GNDA.t31 sky130_fd_pr__nfet_01v8 ad=0.1 pd=0.9 as=0.1 ps=0.9 w=0.5 l=0.2
X161 V_p_2.t7 V_CUR_REF_REG.t5 1st_Vout_2.t4 GNDA.t24 sky130_fd_pr__nfet_01v8 ad=0.1 pd=0.9 as=0.1 ps=0.9 w=0.5 l=0.2
X162 START_UP.t3 V_TOP.t38 VDDA.t96 VDDA.t95 sky130_fd_pr__pfet_01v8 ad=0.6 pd=3.4 as=0.6 ps=3.4 w=3 l=0.5
X163 1st_Vout_1.t26 cap_res1.t7 sky130_fd_pr__cap_mim_m3_1 l=2 w=2
X164 V_TOP.t39 VDDA.t71 sky130_fd_pr__cap_mim_m3_1 l=2 w=2
X165 VB3_CUR_BIAS.t1 NFET_GATE_10uA.t19 GNDA.t45 GNDA.t44 sky130_fd_pr__nfet_01v8 ad=0.2 pd=1.4 as=0.2 ps=1.4 w=1 l=0.15
X166 1st_Vout_1.t27 cap_res1.t6 sky130_fd_pr__cap_mim_m3_1 l=2 w=2
X167 GNDA.t43 NFET_GATE_10uA.t20 VB3_CUR_BIAS.t0 GNDA.t42 sky130_fd_pr__nfet_01v8 ad=0.2 pd=1.4 as=0.2 ps=1.4 w=1 l=0.15
X168 ERR_AMP_CUR_BIAS.t0 NFET_GATE_10uA.t21 GNDA.t41 GNDA.t40 sky130_fd_pr__nfet_01v8 ad=0.2 pd=1.4 as=0.2 ps=1.4 w=1 l=0.15
X169 VDDA.t62 PFET_GATE_10uA.t24 TAIL_CUR_MIR_BIAS.t2 VDDA.t61 sky130_fd_pr__pfet_01v8 ad=0.2 pd=1.4 as=0.2 ps=1.4 w=1 l=0.15
X170 ERR_AMP_REF.t0 V_TOP.t40 VDDA.t2 VDDA.t1 sky130_fd_pr__pfet_01v8 ad=0.6 pd=3.4 as=0.6 ps=3.4 w=3 l=0.5
X171 V_TOP.t9 1st_Vout_1.t28 VDDA.t180 VDDA.t179 sky130_fd_pr__pfet_01v8 ad=0.2 pd=1.4 as=0.2 ps=1.4 w=1 l=0.2
X172 V_p_2.t1 ERR_AMP_REF.t10 V_mir2.t2 GNDA.t33 sky130_fd_pr__nfet_01v8 ad=0.1 pd=0.9 as=0.1 ps=0.9 w=0.5 l=0.2
X173 1st_Vout_1.t29 cap_res1.t5 sky130_fd_pr__cap_mim_m3_1 l=2 w=2
X174 1st_Vout_1.t0 V_mir1.t21 VDDA.t9 VDDA.t8 sky130_fd_pr__pfet_01v8 ad=0.2 pd=1.4 as=0.2 ps=1.4 w=1 l=0.2
X175 ERR_AMP_REF.t2 a_38690_n7778.t0 GNDA.t9 sky130_fd_pr__res_xhigh_po_0p35 l=4.2
X176 START_UP.t2 V_TOP.t41 VDDA.t94 VDDA.t93 sky130_fd_pr__pfet_01v8 ad=0.6 pd=3.4 as=0.6 ps=3.4 w=3 l=0.5
X177 VDDA.t88 V_mir1.t2 V_mir1.t3 VDDA.t87 sky130_fd_pr__pfet_01v8 ad=0.2 pd=1.4 as=0.2 ps=1.4 w=1 l=0.2
X178 GNDA.t39 NFET_GATE_10uA.t22 VB2_CUR_BIAS.t1 GNDA.t38 sky130_fd_pr__nfet_01v8 ad=0.2 pd=1.4 as=0.2 ps=1.4 w=1 l=0.15
X179 GNDA.t77 GNDA.t85 sky130_fd_pr__rf_pnp_05v5_W3p40L3p40_25.Emitter.t5 sky130_fd_pr__pnp_05v5_W3p40L3p40
**devattr s=462400,2720
X180 VDDA.t18 PFET_GATE_10uA.t25 V_CMFB_S3.t0 VDDA.t17 sky130_fd_pr__pfet_01v8 ad=0.2 pd=1.4 as=0.2 ps=1.4 w=1 l=0.15
X181 GNDA.t77 GNDA.t86 sky130_fd_pr__rf_pnp_05v5_W3p40L3p40_25.Emitter.t4 sky130_fd_pr__pnp_05v5_W3p40L3p40
**devattr s=462400,2720
X182 VDDA.t78 1st_Vout_1.t30 V_TOP.t8 VDDA.t77 sky130_fd_pr__pfet_01v8 ad=0.2 pd=1.4 as=0.2 ps=1.4 w=1 l=0.2
X183 V_TOP.t2 VDDA.t137 VDDA.t139 VDDA.t138 sky130_fd_pr__pfet_01v8 ad=0.2 pd=1.4 as=0.4 ps=2.8 w=1 l=0.15
X184 VDDA.t110 V_mir2.t9 V_mir2.t10 VDDA.t109 sky130_fd_pr__pfet_01v8 ad=0.2 pd=1.4 as=0.2 ps=1.4 w=1 l=0.2
X185 GNDA.t37 NFET_GATE_10uA.t23 VB2_CUR_BIAS.t0 GNDA.t36 sky130_fd_pr__nfet_01v8 ad=0.2 pd=1.4 as=0.2 ps=1.4 w=1 l=0.15
X186 V_CMFB_S4.t3 GNDA.t82 GNDA.t84 GNDA.t83 sky130_fd_pr__nfet_01v8 ad=0.2 pd=1.4 as=0.4 ps=2.8 w=1 l=0.15
X187 VDDA.t33 V_TOP.t42 Vin-.t1 VDDA.t32 sky130_fd_pr__pfet_01v8 ad=0.6 pd=3.4 as=0.6 ps=3.4 w=3 l=0.5
X188 1st_Vout_1.t31 cap_res1.t4 sky130_fd_pr__cap_mim_m3_1 l=2 w=2
X189 VDDA.t108 V_mir2.t22 1st_Vout_2.t6 VDDA.t107 sky130_fd_pr__pfet_01v8 ad=0.2 pd=1.4 as=0.2 ps=1.4 w=1 l=0.2
X190 a_33090_n6320.t1 a_32970_n7928.t1 GNDA.t34 sky130_fd_pr__res_xhigh_po_0p35 l=6
X191 GNDA.t77 GNDA.t79 sky130_fd_pr__rf_pnp_05v5_W3p40L3p40_25.Emitter.t3 sky130_fd_pr__pnp_05v5_W3p40L3p40
**devattr s=462400,2720
X192 VDDA.t68 PFET_GATE_10uA.t26 TAIL_CUR_MIR_BIAS.t1 VDDA.t67 sky130_fd_pr__pfet_01v8 ad=0.2 pd=1.4 as=0.2 ps=1.4 w=1 l=0.15
X193 VDDA.t82 V_TOP.t43 Vin+.t4 VDDA.t81 sky130_fd_pr__pfet_01v8 ad=0.6 pd=3.4 as=0.6 ps=3.4 w=3 l=0.5
X194 PFET_GATE_10uA.t4 1st_Vout_2.t32 VDDA.t203 VDDA.t202 sky130_fd_pr__pfet_01v8 ad=0.2 pd=1.4 as=0.2 ps=1.4 w=1 l=0.2
X195 1st_Vout_2.t33 cap_res2.t4 sky130_fd_pr__cap_mim_m3_1 l=2 w=2
X196 V_TOP.t44 VDDA.t183 sky130_fd_pr__cap_mim_m3_1 l=2 w=2
X197 VDDA.t40 PFET_GATE_10uA.t27 V_CMFB_S3.t1 VDDA.t39 sky130_fd_pr__pfet_01v8 ad=0.2 pd=1.4 as=0.2 ps=1.4 w=1 l=0.15
X198 1st_Vout_2.t34 cap_res2.t3 sky130_fd_pr__cap_mim_m3_1 l=2 w=2
X199 1st_Vout_1.t3 Vin+.t10 V_p_1.t6 GNDA.t27 sky130_fd_pr__nfet_01v8 ad=0.1 pd=0.9 as=0.1 ps=0.9 w=0.5 l=0.2
X200 V_mir2.t0 ERR_AMP_REF.t11 V_p_2.t0 GNDA.t4 sky130_fd_pr__nfet_01v8 ad=0.1 pd=0.9 as=0.1 ps=0.9 w=0.5 l=0.2
X201 VDDA.t191 PFET_GATE_10uA.t28 V_CMFB_S1.t5 VDDA.t190 sky130_fd_pr__pfet_01v8 ad=0.2 pd=1.4 as=0.2 ps=1.4 w=1 l=0.15
X202 V_TOP.t7 1st_Vout_1.t32 VDDA.t197 VDDA.t196 sky130_fd_pr__pfet_01v8 ad=0.2 pd=1.4 as=0.2 ps=1.4 w=1 l=0.2
X203 1st_Vout_2.t35 cap_res2.t2 sky130_fd_pr__cap_mim_m3_1 l=2 w=2
X204 Vin-.t2 V_TOP.t45 VDDA.t42 VDDA.t41 sky130_fd_pr__pfet_01v8 ad=0.6 pd=3.4 as=0.6 ps=3.4 w=3 l=0.5
X205 1st_Vout_1.t33 cap_res1.t3 sky130_fd_pr__cap_mim_m3_1 l=2 w=2
X206 GNDA.t77 GNDA.t76 Vin-.t5 sky130_fd_pr__pnp_05v5_W3p40L3p40
**devattr s=462400,2720
X207 VDDA.t47 PFET_GATE_10uA.t29 TAIL_CUR_MIR_BIAS.t0 VDDA.t46 sky130_fd_pr__pfet_01v8 ad=0.2 pd=1.4 as=0.2 ps=1.4 w=1 l=0.15
X208 VDDA.t136 VDDA.t134 V_CUR_REF_REG.t1 VDDA.t135 sky130_fd_pr__pfet_01v8 ad=0.4 pd=2.8 as=0.2 ps=1.4 w=1 l=0.15
X209 1st_Vout_2.t3 V_CUR_REF_REG.t6 V_p_2.t6 GNDA.t23 sky130_fd_pr__nfet_01v8 ad=0.2 pd=1.8 as=0.1 ps=0.9 w=0.5 l=0.2
X210 1st_Vout_1.t34 cap_res1.t2 sky130_fd_pr__cap_mim_m3_1 l=2 w=2
X211 1st_Vout_1.t35 cap_res1.t1 sky130_fd_pr__cap_mim_m3_1 l=2 w=2
X212 a_37920_n6320.t1 a_38040_n7928.t1 GNDA.t7 sky130_fd_pr__res_xhigh_po_0p35 l=6
X213 GNDA.t81 GNDA.t80 sky130_fd_pr__rf_pnp_05v5_W3p40L3p40_25.Emitter.t2 sky130_fd_pr__pnp_05v5_W3p40L3p40
**devattr s=462400,2720
X214 VDDA.t195 1st_Vout_1.t36 V_TOP.t6 VDDA.t194 sky130_fd_pr__pfet_01v8 ad=0.2 pd=1.4 as=0.2 ps=1.4 w=1 l=0.2
X215 V_TOP.t46 VDDA.t55 sky130_fd_pr__cap_mim_m3_1 l=2 w=2
X216 1st_Vout_2.t5 V_CUR_REF_REG.t7 V_p_2.t8 GNDA.t25 sky130_fd_pr__nfet_01v8 ad=0.1 pd=0.9 as=0.1 ps=0.9 w=0.5 l=0.2
X217 VDDA.t133 VDDA.t131 ERR_AMP_REF.t3 VDDA.t132 sky130_fd_pr__pfet_01v8 ad=1.2 pd=6.8 as=0.6 ps=3.4 w=3 l=0.5
X218 VDDA.t102 V_mir1.t22 1st_Vout_1.t6 VDDA.t101 sky130_fd_pr__pfet_01v8 ad=0.2 pd=1.4 as=0.2 ps=1.4 w=1 l=0.2
X219 V_TOP.t47 VDDA.t25 sky130_fd_pr__cap_mim_m3_1 l=2 w=2
X220 GNDA.t77 GNDA.t78 sky130_fd_pr__rf_pnp_05v5_W3p40L3p40_25.Emitter.t1 sky130_fd_pr__pnp_05v5_W3p40L3p40
**devattr s=462400,2720
X221 V_TOP.t48 VDDA.t19 sky130_fd_pr__cap_mim_m3_1 l=2 w=2
X222 1st_Vout_2.t36 cap_res2.t1 sky130_fd_pr__cap_mim_m3_1 l=2 w=2
X223 a_32440_n6570.t1 GNDA.t6 GNDA.t5 sky130_fd_pr__res_xhigh_po_0p35 l=4
X224 V_TOP.t49 VDDA.t70 sky130_fd_pr__cap_mim_m3_1 l=2 w=2
X225 V_mir1.t1 V_mir1.t0 VDDA.t106 VDDA.t105 sky130_fd_pr__pfet_01v8 ad=0.2 pd=1.4 as=0.2 ps=1.4 w=1 l=0.2
R0 1st_Vout_2 1st_Vout_2.t29 354.854
R1 1st_Vout_2.n0 1st_Vout_2.t22 346.8
R2 1st_Vout_2 1st_Vout_2.n11 339.522
R3 1st_Vout_2.n0 1st_Vout_2.n4 339.522
R4 1st_Vout_2.n2 1st_Vout_2.n6 335.022
R5 1st_Vout_2.n8 1st_Vout_2.t3 275.909
R6 1st_Vout_2.n8 1st_Vout_2.n7 227.909
R7 1st_Vout_2.n2 1st_Vout_2.n9 222.034
R8 1st_Vout_2.n10 1st_Vout_2.t32 184.097
R9 1st_Vout_2.n10 1st_Vout_2.t21 184.097
R10 1st_Vout_2.n5 1st_Vout_2.t20 184.097
R11 1st_Vout_2.n5 1st_Vout_2.t26 184.097
R12 1st_Vout_2 1st_Vout_2.n10 166.05
R13 1st_Vout_2.n0 1st_Vout_2.n5 166.05
R14 1st_Vout_2.n0 1st_Vout_2.n3 52.9634
R15 1st_Vout_2.n9 1st_Vout_2.t2 48.0005
R16 1st_Vout_2.n9 1st_Vout_2.t5 48.0005
R17 1st_Vout_2.n7 1st_Vout_2.t4 48.0005
R18 1st_Vout_2.n7 1st_Vout_2.t10 48.0005
R19 1st_Vout_2.n6 1st_Vout_2.t9 39.4005
R20 1st_Vout_2.n6 1st_Vout_2.t1 39.4005
R21 1st_Vout_2.n4 1st_Vout_2.t6 39.4005
R22 1st_Vout_2.n4 1st_Vout_2.t8 39.4005
R23 1st_Vout_2.n11 1st_Vout_2.t0 39.4005
R24 1st_Vout_2.n11 1st_Vout_2.t7 39.4005
R25 1st_Vout_2 1st_Vout_2.n0 5.6255
R26 1st_Vout_2 1st_Vout_2.n2 5.28175
R27 1st_Vout_2.n1 1st_Vout_2.t27 4.8295
R28 1st_Vout_2.n1 1st_Vout_2.t11 4.8295
R29 1st_Vout_2.n1 1st_Vout_2.t18 4.8295
R30 1st_Vout_2.n1 1st_Vout_2.t31 4.8295
R31 1st_Vout_2.n1 1st_Vout_2.t35 4.8295
R32 1st_Vout_2.n1 1st_Vout_2.t24 4.8295
R33 1st_Vout_2.n3 1st_Vout_2.t16 4.8295
R34 1st_Vout_2.n3 1st_Vout_2.t30 4.8295
R35 1st_Vout_2.n3 1st_Vout_2.t28 4.8295
R36 1st_Vout_2.n2 1st_Vout_2.n8 4.5005
R37 1st_Vout_2.n1 1st_Vout_2.t25 4.5005
R38 1st_Vout_2.n1 1st_Vout_2.t23 4.5005
R39 1st_Vout_2.n1 1st_Vout_2.t17 4.5005
R40 1st_Vout_2.n1 1st_Vout_2.t15 4.5005
R41 1st_Vout_2.n1 1st_Vout_2.t34 4.5005
R42 1st_Vout_2.n1 1st_Vout_2.t33 4.5005
R43 1st_Vout_2.n3 1st_Vout_2.t13 4.5005
R44 1st_Vout_2.n3 1st_Vout_2.t12 4.5005
R45 1st_Vout_2.n3 1st_Vout_2.t19 4.5005
R46 1st_Vout_2.n3 1st_Vout_2.t36 4.5005
R47 1st_Vout_2.n3 1st_Vout_2.t14 4.5005
R48 1st_Vout_2.n3 1st_Vout_2.n1 3.1025
R49 cap_res2 cap_res2.t0 121.05
R50 cap_res2 cap_res2.t12 0.194375
R51 cap_res2.t1 cap_res2.t17 0.1603
R52 cap_res2.t19 cap_res2.t6 0.1603
R53 cap_res2.t4 cap_res2.t10 0.1603
R54 cap_res2.t16 cap_res2.t5 0.1603
R55 cap_res2.t11 cap_res2.t20 0.1603
R56 cap_res2.n1 cap_res2.t9 0.159278
R57 cap_res2.n2 cap_res2.t14 0.159278
R58 cap_res2.n3 cap_res2.t3 0.159278
R59 cap_res2.n4 cap_res2.t18 0.159278
R60 cap_res2.n4 cap_res2.t1 0.1368
R61 cap_res2.n4 cap_res2.t7 0.1368
R62 cap_res2.n3 cap_res2.t19 0.1368
R63 cap_res2.n3 cap_res2.t15 0.1368
R64 cap_res2.n2 cap_res2.t4 0.1368
R65 cap_res2.n2 cap_res2.t2 0.1368
R66 cap_res2.n1 cap_res2.t16 0.1368
R67 cap_res2.n1 cap_res2.t13 0.1368
R68 cap_res2.n0 cap_res2.t11 0.1368
R69 cap_res2.n0 cap_res2.t8 0.1368
R70 cap_res2.t9 cap_res2.n0 0.00152174
R71 cap_res2.t14 cap_res2.n1 0.00152174
R72 cap_res2.t3 cap_res2.n2 0.00152174
R73 cap_res2.t18 cap_res2.n3 0.00152174
R74 cap_res2.t12 cap_res2.n4 0.00152174
R75 NFET_GATE_10uA.n19 NFET_GATE_10uA.n0 397.197
R76 NFET_GATE_10uA.n19 NFET_GATE_10uA.t2 384.967
R77 NFET_GATE_10uA.n10 NFET_GATE_10uA.t22 369.534
R78 NFET_GATE_10uA.n9 NFET_GATE_10uA.t13 369.534
R79 NFET_GATE_10uA.n7 NFET_GATE_10uA.t17 369.534
R80 NFET_GATE_10uA.n4 NFET_GATE_10uA.t8 369.534
R81 NFET_GATE_10uA.n1 NFET_GATE_10uA.t19 369.534
R82 NFET_GATE_10uA.t2 NFET_GATE_10uA.n18 369.534
R83 NFET_GATE_10uA.n10 NFET_GATE_10uA.t12 192.8
R84 NFET_GATE_10uA.n11 NFET_GATE_10uA.t5 192.8
R85 NFET_GATE_10uA.n12 NFET_GATE_10uA.t6 192.8
R86 NFET_GATE_10uA.n9 NFET_GATE_10uA.t18 192.8
R87 NFET_GATE_10uA.n7 NFET_GATE_10uA.t11 192.8
R88 NFET_GATE_10uA.n6 NFET_GATE_10uA.t23 192.8
R89 NFET_GATE_10uA.n5 NFET_GATE_10uA.t16 192.8
R90 NFET_GATE_10uA.n4 NFET_GATE_10uA.t7 192.8
R91 NFET_GATE_10uA.n3 NFET_GATE_10uA.t20 192.8
R92 NFET_GATE_10uA.n2 NFET_GATE_10uA.t14 192.8
R93 NFET_GATE_10uA.n1 NFET_GATE_10uA.t9 192.8
R94 NFET_GATE_10uA.n18 NFET_GATE_10uA.t21 192.8
R95 NFET_GATE_10uA.n17 NFET_GATE_10uA.t15 192.8
R96 NFET_GATE_10uA.n16 NFET_GATE_10uA.t10 192.8
R97 NFET_GATE_10uA.n12 NFET_GATE_10uA.n11 176.733
R98 NFET_GATE_10uA.n11 NFET_GATE_10uA.n10 176.733
R99 NFET_GATE_10uA.n5 NFET_GATE_10uA.n4 176.733
R100 NFET_GATE_10uA.n6 NFET_GATE_10uA.n5 176.733
R101 NFET_GATE_10uA.n2 NFET_GATE_10uA.n1 176.733
R102 NFET_GATE_10uA.n3 NFET_GATE_10uA.n2 176.733
R103 NFET_GATE_10uA.n17 NFET_GATE_10uA.n16 176.733
R104 NFET_GATE_10uA.n18 NFET_GATE_10uA.n17 176.733
R105 NFET_GATE_10uA.n14 NFET_GATE_10uA.n13 169.852
R106 NFET_GATE_10uA.n14 NFET_GATE_10uA.n8 169.852
R107 NFET_GATE_10uA.n15 NFET_GATE_10uA.n14 166.133
R108 NFET_GATE_10uA.n20 NFET_GATE_10uA.n19 126.876
R109 NFET_GATE_10uA.n13 NFET_GATE_10uA.n12 56.2338
R110 NFET_GATE_10uA.n13 NFET_GATE_10uA.n9 56.2338
R111 NFET_GATE_10uA.n8 NFET_GATE_10uA.n7 56.2338
R112 NFET_GATE_10uA.n8 NFET_GATE_10uA.n6 56.2338
R113 NFET_GATE_10uA.n15 NFET_GATE_10uA.n3 56.2338
R114 NFET_GATE_10uA.n16 NFET_GATE_10uA.n15 56.2338
R115 NFET_GATE_10uA.n0 NFET_GATE_10uA.t4 39.4005
R116 NFET_GATE_10uA.n0 NFET_GATE_10uA.t1 39.4005
R117 NFET_GATE_10uA.n20 NFET_GATE_10uA.t3 24.0005
R118 NFET_GATE_10uA.t0 NFET_GATE_10uA.n20 24.0005
R119 V_CMFB_S2.n2 V_CMFB_S2.n0 144.827
R120 V_CMFB_S2.n2 V_CMFB_S2.n1 134.577
R121 V_CMFB_S2 V_CMFB_S2.n2 37.563
R122 V_CMFB_S2.n1 V_CMFB_S2.t3 24.0005
R123 V_CMFB_S2.n1 V_CMFB_S2.t2 24.0005
R124 V_CMFB_S2.n0 V_CMFB_S2.t0 24.0005
R125 V_CMFB_S2.n0 V_CMFB_S2.t1 24.0005
R126 GNDA.n2035 GNDA.n2034 9343.35
R127 GNDA.n2035 GNDA.n16 9291.68
R128 GNDA.n2037 GNDA.n2035 8202.33
R129 GNDA.n1363 GNDA.n1207 1367.21
R130 GNDA.n2034 GNDA.t13 1311.87
R131 GNDA.n1819 GNDA.n1816 1185.07
R132 GNDA.n1819 GNDA.n1818 1185.07
R133 GNDA.n1496 GNDA.n16 1104.89
R134 GNDA.n1829 GNDA.n1828 686.717
R135 GNDA.n1617 GNDA.n1616 686.717
R136 GNDA.n1613 GNDA.n1602 686.717
R137 GNDA.n1821 GNDA.n192 686.717
R138 GNDA.n211 GNDA.n207 669.307
R139 GNDA.n1496 GNDA.n1495 585.003
R140 GNDA.n1701 GNDA.n1700 585.001
R141 GNDA.n1722 GNDA.n1721 585.001
R142 GNDA.n1716 GNDA.n199 585.001
R143 GNDA.n1919 GNDA.n1918 585.001
R144 GNDA.n1913 GNDA.n1912 585.001
R145 GNDA.n137 GNDA.n17 585.001
R146 GNDA.n935 GNDA.n20 585
R147 GNDA.n959 GNDA.n808 585
R148 GNDA.n957 GNDA.n956 585
R149 GNDA.n955 GNDA.n810 585
R150 GNDA.n954 GNDA.n953 585
R151 GNDA.n951 GNDA.n811 585
R152 GNDA.n949 GNDA.n948 585
R153 GNDA.n947 GNDA.n812 585
R154 GNDA.n946 GNDA.n945 585
R155 GNDA.n943 GNDA.n813 585
R156 GNDA.n941 GNDA.n940 585
R157 GNDA.n939 GNDA.n814 585
R158 GNDA.n2012 GNDA.n2011 585
R159 GNDA.n2013 GNDA.n27 585
R160 GNDA.n2015 GNDA.n2014 585
R161 GNDA.n2017 GNDA.n25 585
R162 GNDA.n2019 GNDA.n2018 585
R163 GNDA.n2020 GNDA.n24 585
R164 GNDA.n2022 GNDA.n2021 585
R165 GNDA.n2024 GNDA.n22 585
R166 GNDA.n2026 GNDA.n2025 585
R167 GNDA.n2027 GNDA.n21 585
R168 GNDA.n2029 GNDA.n2028 585
R169 GNDA.n1342 GNDA.n1341 585
R170 GNDA.n1341 GNDA.n1340 585
R171 GNDA.n1342 GNDA.n1218 585
R172 GNDA.n1218 GNDA.n1217 585
R173 GNDA.n1344 GNDA.n1343 585
R174 GNDA.n1345 GNDA.n1344 585
R175 GNDA.n1216 GNDA.n1215 585
R176 GNDA.n1346 GNDA.n1216 585
R177 GNDA.n1350 GNDA.n1349 585
R178 GNDA.n1349 GNDA.n1348 585
R179 GNDA.n1351 GNDA.n1214 585
R180 GNDA.n1347 GNDA.n1214 585
R181 GNDA.n1353 GNDA.n1352 585
R182 GNDA.n1353 GNDA.n1201 585
R183 GNDA.n1354 GNDA.n1213 585
R184 GNDA.n1354 GNDA.n1202 585
R185 GNDA.n1357 GNDA.n1356 585
R186 GNDA.n1356 GNDA.n1355 585
R187 GNDA.n1358 GNDA.n1212 585
R188 GNDA.n1212 GNDA.n1211 585
R189 GNDA.n1360 GNDA.n1359 585
R190 GNDA.n1361 GNDA.n1360 585
R191 GNDA.n1210 GNDA.n1209 585
R192 GNDA.n1362 GNDA.n1210 585