* NGSPICE file created from bgr_opamp_dummy_magic_17.ext - technology: sky130A

.subckt sky130_fd_pr__rf_pnp_05v5_W3p40L3p40 Emitter Collector Base m=1
X0 Collector Base Emitter sky130_fd_pr__pnp_05v5_W3p40L3p40
**devattr s=462400,2720
.ends

.subckt bgr_11 ERR_AMP_REF V_CMFB_S3 VB1_CUR_BIAS TAIL_CUR_MIR_BIAS V_CMFB_S1 ERR_AMP_CUR_BIAS
+ VB3_CUR_BIAS V_CMFB_S4 V_CMFB_S2 VB2_CUR_BIAS a_35550_n8650# m1_35910_n9110# PFET_GATE_10uA
+ w_32750_1390# a_33140_n2120# w_32720_30# w_32630_2310# sky130_fd_pr__rf_pnp_05v5_W3p40L3p40_8/Base
+ a_37640_n2700# a_34140_n2090# w_37690_1390#
Xsky130_fd_pr__rf_pnp_05v5_W3p40L3p40_8 sky130_fd_pr__rf_pnp_05v5_W3p40L3p40_8/Emitter
+ sky130_fd_pr__rf_pnp_05v5_W3p40L3p40_8/Base sky130_fd_pr__rf_pnp_05v5_W3p40L3p40_8/Base
+ sky130_fd_pr__rf_pnp_05v5_W3p40L3p40
+ m=1
Xsky130_fd_pr__rf_pnp_05v5_W3p40L3p40_20 sky130_fd_pr__rf_pnp_05v5_W3p40L3p40_8/Emitter
+ sky130_fd_pr__rf_pnp_05v5_W3p40L3p40_8/Base sky130_fd_pr__rf_pnp_05v5_W3p40L3p40_8/Base
+ sky130_fd_pr__rf_pnp_05v5_W3p40L3p40
+ m=1
Xsky130_fd_pr__rf_pnp_05v5_W3p40L3p40_21 sky130_fd_pr__rf_pnp_05v5_W3p40L3p40_8/Emitter
+ sky130_fd_pr__rf_pnp_05v5_W3p40L3p40_8/Base sky130_fd_pr__rf_pnp_05v5_W3p40L3p40_8/Base
+ sky130_fd_pr__rf_pnp_05v5_W3p40L3p40
+ m=1
Xsky130_fd_pr__rf_pnp_05v5_W3p40L3p40_22 sky130_fd_pr__rf_pnp_05v5_W3p40L3p40_8/Emitter
+ sky130_fd_pr__rf_pnp_05v5_W3p40L3p40_8/Base sky130_fd_pr__rf_pnp_05v5_W3p40L3p40_8/Base
+ sky130_fd_pr__rf_pnp_05v5_W3p40L3p40
+ m=1
Xsky130_fd_pr__rf_pnp_05v5_W3p40L3p40_23 Vin- sky130_fd_pr__rf_pnp_05v5_W3p40L3p40_8/Base
+ sky130_fd_pr__rf_pnp_05v5_W3p40L3p40_8/Base sky130_fd_pr__rf_pnp_05v5_W3p40L3p40 m=1
Xsky130_fd_pr__rf_pnp_05v5_W3p40L3p40_24 sky130_fd_pr__rf_pnp_05v5_W3p40L3p40_8/Emitter
+ sky130_fd_pr__rf_pnp_05v5_W3p40L3p40_8/Base sky130_fd_pr__rf_pnp_05v5_W3p40L3p40_8/Base
+ sky130_fd_pr__rf_pnp_05v5_W3p40L3p40
+ m=1
Xsky130_fd_pr__rf_pnp_05v5_W3p40L3p40_25 sky130_fd_pr__rf_pnp_05v5_W3p40L3p40_8/Emitter
+ sky130_fd_pr__rf_pnp_05v5_W3p40L3p40_8/Base sky130_fd_pr__rf_pnp_05v5_W3p40L3p40_8/Base
+ sky130_fd_pr__rf_pnp_05v5_W3p40L3p40
+ m=1
Xsky130_fd_pr__rf_pnp_05v5_W3p40L3p40_18 sky130_fd_pr__rf_pnp_05v5_W3p40L3p40_8/Emitter
+ sky130_fd_pr__rf_pnp_05v5_W3p40L3p40_8/Base sky130_fd_pr__rf_pnp_05v5_W3p40L3p40_8/Base
+ sky130_fd_pr__rf_pnp_05v5_W3p40L3p40
+ m=1
Xsky130_fd_pr__rf_pnp_05v5_W3p40L3p40_19 sky130_fd_pr__rf_pnp_05v5_W3p40L3p40_8/Emitter
+ sky130_fd_pr__rf_pnp_05v5_W3p40L3p40_8/Base sky130_fd_pr__rf_pnp_05v5_W3p40L3p40_8/Base
+ sky130_fd_pr__rf_pnp_05v5_W3p40L3p40
+ m=1
X0 V_mir1 V_mir1 w_32720_30# w_32720_30# sky130_fd_pr__pfet_01v8 ad=0.2 pd=1.4 as=0.2 ps=1.4 w=1 l=0.2
X1 V_TOP a_33140_n2120# sky130_fd_pr__rf_pnp_05v5_W3p40L3p40_8/Base sky130_fd_pr__rf_pnp_05v5_W3p40L3p40_8/Base sky130_fd_pr__nfet_01v8 ad=1 pd=5.8 as=1.01 ps=6.15 w=2.5 l=5
X2 V_TOP m1_35910_n9110# sky130_fd_pr__cap_mim_m3_1 l=2 w=2
X3 a_38570_n6514# a_38690_n7778# sky130_fd_pr__rf_pnp_05v5_W3p40L3p40_8/Base sky130_fd_pr__res_xhigh_po_0p35 l=4.28
X4 w_37690_1390# PFET_GATE_10uA VB1_CUR_BIAS w_37690_1390# sky130_fd_pr__pfet_01v8 ad=0.4 pd=2.4 as=0.4 ps=2.4 w=2 l=0.15
X5 1st_Vout_1 cap_res1 sky130_fd_pr__cap_mim_m3_1 l=2 w=2
X6 w_32750_1390# V_TOP Vin+ w_32750_1390# sky130_fd_pr__pfet_01v8 ad=0.6 pd=3.4 as=0.6 ps=3.4 w=3 l=0.5
X7 sky130_fd_pr__rf_pnp_05v5_W3p40L3p40_8/Base NFET_GATE_10uA ERR_AMP_CUR_BIAS sky130_fd_pr__rf_pnp_05v5_W3p40L3p40_8/Base sky130_fd_pr__nfet_01v8 ad=0.2 pd=1.4 as=0.2 ps=1.4 w=1 l=0.15
X8 1st_Vout_2 cap_res2 sky130_fd_pr__cap_mim_m3_1 l=2 w=2
X9 1st_Vout_1 cap_res1 sky130_fd_pr__cap_mim_m3_1 l=2 w=2
X10 V_TOP m1_35910_n9110# sky130_fd_pr__cap_mim_m3_1 l=2 w=2
X11 1st_Vout_1 cap_res1 sky130_fd_pr__cap_mim_m3_1 l=2 w=2
X12 V_CMFB_S3 w_32630_2310# w_32630_2310# w_32630_2310# sky130_fd_pr__pfet_01v8 ad=0.2 pd=1.4 as=0.4 ps=2.8 w=1 l=0.15
X13 w_32630_2310# w_32630_2310# V_CMFB_S1 w_32630_2310# sky130_fd_pr__pfet_01v8 ad=0.4 pd=2.8 as=0.2 ps=1.4 w=1 l=0.15
X14 1st_Vout_1 cap_res1 sky130_fd_pr__cap_mim_m3_1 l=2 w=2
X15 w_32720_30# V_mir1 1st_Vout_1 w_32720_30# sky130_fd_pr__pfet_01v8 ad=0.2 pd=1.4 as=0.2 ps=1.4 w=1 l=0.2
X16 w_32630_2310# w_32630_2310# V_CUR_REF_REG w_32630_2310# sky130_fd_pr__pfet_01v8 ad=0.4 pd=2.8 as=0.2 ps=1.4 w=1 l=0.15
X17 Vin- V_TOP w_32750_1390# w_32750_1390# sky130_fd_pr__pfet_01v8 ad=0.6 pd=3.4 as=0.6 ps=3.4 w=3 l=0.5
X18 w_32720_30# a_36200_20# a_36200_20# w_32720_30# sky130_fd_pr__pfet_01v8 ad=0.2 pd=1.4 as=0.2 ps=1.4 w=1 l=0.2
X19 V_CUR_REF_REG a_32320_n7778# sky130_fd_pr__rf_pnp_05v5_W3p40L3p40_8/Base sky130_fd_pr__res_xhigh_po_0p35 l=4
X20 w_32720_30# a_36200_20# 1st_Vout_2 w_32720_30# sky130_fd_pr__pfet_01v8 ad=0.2 pd=1.4 as=0.2 ps=1.4 w=1 l=0.2
X21 1st_Vout_1 cap_res1 sky130_fd_pr__cap_mim_m3_1 l=2 w=2
X22 V_TOP START_UP Vin- w_32750_1390# sky130_fd_pr__pfet_01v8 ad=0.2 pd=1.4 as=0.2 ps=1.4 w=1 l=0.15
X23 ERR_AMP_REF V_TOP w_32750_1390# w_32750_1390# sky130_fd_pr__pfet_01v8 ad=0.6 pd=3.4 as=0.6 ps=3.4 w=3 l=0.5
X24 w_32720_30# 1st_Vout_2 PFET_GATE_10uA w_32720_30# sky130_fd_pr__pfet_01v8 ad=0.2 pd=1.4 as=0.2 ps=1.4 w=1 l=0.2
X25 w_32630_2310# PFET_GATE_10uA V_CMFB_S1 w_32630_2310# sky130_fd_pr__pfet_01v8 ad=0.2 pd=1.4 as=0.2 ps=1.4 w=1 l=0.15
X26 V_p_2 V_CUR_REF_REG 1st_Vout_2 sky130_fd_pr__rf_pnp_05v5_W3p40L3p40_8/Base sky130_fd_pr__nfet_01v8 ad=0.5 pd=2.9 as=1 ps=5.8 w=2.5 l=0.2
X27 START_UP_NFET1 START_UP START_UP sky130_fd_pr__rf_pnp_05v5_W3p40L3p40_8/Base sky130_fd_pr__nfet_01v8 ad=0.2 pd=1.4 as=0.4 ps=2.8 w=1 l=10
X28 V_TOP m1_35910_n9110# sky130_fd_pr__cap_mim_m3_1 l=2 w=2
X29 sky130_fd_pr__rf_pnp_05v5_W3p40L3p40_8/Base a_33140_n2120# V_p_1 sky130_fd_pr__rf_pnp_05v5_W3p40L3p40_8/Base sky130_fd_pr__nfet_01v8 ad=1.01 pd=6.15 as=1 ps=5.8 w=2.5 l=5
X30 Vin- V_TOP w_32750_1390# w_32750_1390# sky130_fd_pr__pfet_01v8 ad=0.6 pd=3.4 as=0.6 ps=3.4 w=3 l=0.5
X31 VB2_CUR_BIAS NFET_GATE_10uA sky130_fd_pr__rf_pnp_05v5_W3p40L3p40_8/Base sky130_fd_pr__rf_pnp_05v5_W3p40L3p40_8/Base sky130_fd_pr__nfet_01v8 ad=0.2 pd=1.4 as=0.2 ps=1.4 w=1 l=0.15
X32 VB2_CUR_BIAS NFET_GATE_10uA sky130_fd_pr__rf_pnp_05v5_W3p40L3p40_8/Base sky130_fd_pr__rf_pnp_05v5_W3p40L3p40_8/Base sky130_fd_pr__nfet_01v8 ad=0.2 pd=1.4 as=0.2 ps=1.4 w=1 l=0.15
X33 sky130_fd_pr__rf_pnp_05v5_W3p40L3p40_8/Base NFET_GATE_10uA VB2_CUR_BIAS sky130_fd_pr__rf_pnp_05v5_W3p40L3p40_8/Base sky130_fd_pr__nfet_01v8 ad=0.2 pd=1.4 as=0.2 ps=1.4 w=1 l=0.15
X34 1st_Vout_2 a_36200_20# w_32720_30# w_32720_30# sky130_fd_pr__pfet_01v8 ad=0.2 pd=1.4 as=0.2 ps=1.4 w=1 l=0.2
X35 TAIL_CUR_MIR_BIAS PFET_GATE_10uA w_32630_2310# w_32630_2310# sky130_fd_pr__pfet_01v8 ad=0.2 pd=1.4 as=0.2 ps=1.4 w=1 l=0.15
X36 w_32750_1390# V_TOP Vin- w_32750_1390# sky130_fd_pr__pfet_01v8 ad=0.6 pd=3.4 as=0.6 ps=3.4 w=3 l=0.5
X37 PFET_GATE_10uA 1st_Vout_2 w_32720_30# w_32720_30# sky130_fd_pr__pfet_01v8 ad=0.2 pd=1.4 as=0.2 ps=1.4 w=1 l=0.2
X38 a_36200_20# a_36200_20# w_32720_30# w_32720_30# sky130_fd_pr__pfet_01v8 ad=0.2 pd=1.4 as=0.2 ps=1.4 w=1 l=0.2
X39 V_TOP m1_35910_n9110# sky130_fd_pr__cap_mim_m3_1 l=2 w=2
X40 1st_Vout_1 cap_res1 sky130_fd_pr__cap_mim_m3_1 l=2 w=2
X41 w_32750_1390# V_TOP ERR_AMP_REF w_32750_1390# sky130_fd_pr__pfet_01v8 ad=0.6 pd=3.4 as=0.6 ps=3.4 w=3 l=0.5
X42 V_TOP m1_35910_n9110# sky130_fd_pr__cap_mim_m3_1 l=2 w=2
X43 sky130_fd_pr__rf_pnp_05v5_W3p40L3p40_8/Base NFET_GATE_10uA VB3_CUR_BIAS sky130_fd_pr__rf_pnp_05v5_W3p40L3p40_8/Base sky130_fd_pr__nfet_01v8 ad=0.2 pd=1.4 as=0.2 ps=1.4 w=1 l=0.15
X44 VB3_CUR_BIAS sky130_fd_pr__rf_pnp_05v5_W3p40L3p40_8/Base sky130_fd_pr__rf_pnp_05v5_W3p40L3p40_8/Base sky130_fd_pr__rf_pnp_05v5_W3p40L3p40_8/Base sky130_fd_pr__nfet_01v8 ad=0.2 pd=1.4 as=0.4 ps=2.8 w=1 l=0.15
X45 w_32630_2310# w_32630_2310# w_32630_2310# w_32630_2310# sky130_fd_pr__pfet_01v8 ad=0.4 pd=2.8 as=7.2 ps=50.4 w=1 l=0.15
X46 V_TOP m1_35910_n9110# sky130_fd_pr__cap_mim_m3_1 l=2 w=2
X47 1st_Vout_2 cap_res2 sky130_fd_pr__cap_mim_m3_1 l=2 w=2
X48 1st_Vout_2 cap_res2 sky130_fd_pr__cap_mim_m3_1 l=2 w=2
X49 w_32750_1390# V_TOP Vin- w_32750_1390# sky130_fd_pr__pfet_01v8 ad=0.6 pd=3.4 as=0.6 ps=3.4 w=3 l=0.5
X50 V_TOP m1_35910_n9110# sky130_fd_pr__cap_mim_m3_1 l=2 w=2
X51 TAIL_CUR_MIR_BIAS PFET_GATE_10uA w_32630_2310# w_32630_2310# sky130_fd_pr__pfet_01v8 ad=0.2 pd=1.4 as=0.2 ps=1.4 w=1 l=0.15
X52 w_32720_30# a_36200_20# 1st_Vout_2 w_32720_30# sky130_fd_pr__pfet_01v8 ad=0.2 pd=1.4 as=0.2 ps=1.4 w=1 l=0.2
X53 sky130_fd_pr__rf_pnp_05v5_W3p40L3p40_8/Base NFET_GATE_10uA VB2_CUR_BIAS sky130_fd_pr__rf_pnp_05v5_W3p40L3p40_8/Base sky130_fd_pr__nfet_01v8 ad=0.2 pd=1.4 as=0.2 ps=1.4 w=1 l=0.15
X54 V_CMFB_S2 NFET_GATE_10uA sky130_fd_pr__rf_pnp_05v5_W3p40L3p40_8/Base sky130_fd_pr__rf_pnp_05v5_W3p40L3p40_8/Base sky130_fd_pr__nfet_01v8 ad=0.2 pd=1.4 as=0.2 ps=1.4 w=1 l=0.15
X55 a_36200_20# ERR_AMP_REF V_p_2 sky130_fd_pr__rf_pnp_05v5_W3p40L3p40_8/Base sky130_fd_pr__nfet_01v8 ad=1 pd=5.8 as=0.5 ps=2.9 w=2.5 l=0.2
X56 1st_Vout_2 cap_res2 sky130_fd_pr__cap_mim_m3_1 l=2 w=2
X57 1st_Vout_1 cap_res1 sky130_fd_pr__cap_mim_m3_1 l=2 w=2
X58 w_32720_30# V_mir1 V_mir1 w_32720_30# sky130_fd_pr__pfet_01v8 ad=0.2 pd=1.4 as=0.2 ps=1.4 w=1 l=0.2
X59 w_32720_30# w_32720_30# PFET_GATE_10uA w_32720_30# sky130_fd_pr__pfet_01v8 ad=0.4 pd=2.8 as=0.2 ps=1.4 w=1 l=0.2
X60 w_32720_30# 1st_Vout_1 V_TOP w_32720_30# sky130_fd_pr__pfet_01v8 ad=0.2 pd=1.4 as=0.2 ps=1.4 w=1 l=0.2
X61 1st_Vout_1 cap_res1 sky130_fd_pr__cap_mim_m3_1 l=2 w=2
X62 w_32750_1390# w_32750_1390# ERR_AMP_REF w_32750_1390# sky130_fd_pr__pfet_01v8 ad=1.2 pd=6.8 as=0.6 ps=3.4 w=3 l=0.5
X63 w_32720_30# a_36200_20# a_36200_20# w_32720_30# sky130_fd_pr__pfet_01v8 ad=0.2 pd=1.4 as=0.2 ps=1.4 w=1 l=0.2
X64 1st_Vout_1 cap_res1 sky130_fd_pr__cap_mim_m3_1 l=2 w=2
X65 Vin+ a_38040_n7928# sky130_fd_pr__rf_pnp_05v5_W3p40L3p40_8/Base sky130_fd_pr__res_xhigh_po_0p35 l=6
X66 sky130_fd_pr__rf_pnp_05v5_W3p40L3p40_8/Base NFET_GATE_10uA NFET_GATE_10uA sky130_fd_pr__rf_pnp_05v5_W3p40L3p40_8/Base sky130_fd_pr__nfet_01v8 ad=0.2 pd=1.4 as=0.2 ps=1.4 w=1 l=0.15
X67 ERR_AMP_CUR_BIAS NFET_GATE_10uA sky130_fd_pr__rf_pnp_05v5_W3p40L3p40_8/Base sky130_fd_pr__rf_pnp_05v5_W3p40L3p40_8/Base sky130_fd_pr__nfet_01v8 ad=0.2 pd=1.4 as=0.2 ps=1.4 w=1 l=0.15
X68 1st_Vout_1 cap_res1 sky130_fd_pr__cap_mim_m3_1 l=2 w=2
X69 Vin+ V_TOP w_32750_1390# w_32750_1390# sky130_fd_pr__pfet_01v8 ad=0.6 pd=3.4 as=0.6 ps=3.4 w=3 l=0.5
X70 TAIL_CUR_MIR_BIAS PFET_GATE_10uA w_32630_2310# w_32630_2310# sky130_fd_pr__pfet_01v8 ad=0.2 pd=1.4 as=0.2 ps=1.4 w=1 l=0.15
X71 Vin+ sky130_fd_pr__rf_pnp_05v5_W3p40L3p40_8/Emitter sky130_fd_pr__rf_pnp_05v5_W3p40L3p40_8/Base sky130_fd_pr__res_xhigh_po_0p35 l=2.3
X72 NFET_GATE_10uA w_32630_2310# w_32630_2310# w_32630_2310# sky130_fd_pr__pfet_01v8 ad=0.2 pd=1.4 as=0.4 ps=2.8 w=1 l=0.15
X73 PFET_GATE_10uA 1st_Vout_2 w_32720_30# w_32720_30# sky130_fd_pr__pfet_01v8 ad=0.2 pd=1.4 as=0.2 ps=1.4 w=1 l=0.2
X74 1st_Vout_1 cap_res1 sky130_fd_pr__cap_mim_m3_1 l=2 w=2
X75 ERR_AMP_REF w_32750_1390# w_32750_1390# w_32750_1390# sky130_fd_pr__pfet_01v8 ad=0.6 pd=3.4 as=1.2 ps=6.8 w=3 l=0.5
X76 a_36200_20# a_36200_20# w_32720_30# w_32720_30# sky130_fd_pr__pfet_01v8 ad=0.2 pd=1.4 as=0.2 ps=1.4 w=1 l=0.2
X77 w_32630_2310# PFET_GATE_10uA V_CMFB_S1 w_32630_2310# sky130_fd_pr__pfet_01v8 ad=0.2 pd=1.4 as=0.2 ps=1.4 w=1 l=0.15
X78 START_UP V_TOP w_32750_1390# w_32750_1390# sky130_fd_pr__pfet_01v8 ad=0.6 pd=3.4 as=0.6 ps=3.4 w=3 l=0.5
X79 1st_Vout_2 cap_res2 sky130_fd_pr__cap_mim_m3_1 l=2 w=2
X80 1st_Vout_1 V_mir1 w_32720_30# w_32720_30# sky130_fd_pr__pfet_01v8 ad=0.2 pd=1.4 as=0.2 ps=1.4 w=1 l=0.2
X81 V_mir1 V_mir1 w_32720_30# w_32720_30# sky130_fd_pr__pfet_01v8 ad=0.2 pd=1.4 as=0.2 ps=1.4 w=1 l=0.2
X82 1st_Vout_2 cap_res2 sky130_fd_pr__cap_mim_m3_1 l=2 w=2
X83 1st_Vout_2 cap_res2 sky130_fd_pr__cap_mim_m3_1 l=2 w=2
X84 w_32630_2310# w_32630_2310# V_CMFB_S3 w_32630_2310# sky130_fd_pr__pfet_01v8 ad=0.4 pd=2.8 as=0.2 ps=1.4 w=1 l=0.15
X85 V_TOP 1st_Vout_1 w_32720_30# w_32720_30# sky130_fd_pr__pfet_01v8 ad=0.2 pd=1.4 as=0.2 ps=1.4 w=1 l=0.2
X86 1st_Vout_2 cap_res2 sky130_fd_pr__cap_mim_m3_1 l=2 w=2
X87 1st_Vout_2 cap_res2 sky130_fd_pr__cap_mim_m3_1 l=2 w=2
X88 TAIL_CUR_MIR_BIAS PFET_GATE_10uA w_32630_2310# w_32630_2310# sky130_fd_pr__pfet_01v8 ad=0.2 pd=1.4 as=0.2 ps=1.4 w=1 l=0.15
X89 w_32630_2310# w_32630_2310# w_32630_2310# w_32630_2310# sky130_fd_pr__pfet_01v8 ad=0.2 pd=1.4 as=0 ps=0 w=1 l=0.15
X90 1st_Vout_1 cap_res1 sky130_fd_pr__cap_mim_m3_1 l=2 w=2
X91 VB1_CUR_BIAS w_37690_1390# w_37690_1390# w_37690_1390# sky130_fd_pr__pfet_01v8 ad=0.4 pd=2.4 as=0.8 ps=4.8 w=2 l=0.15
X92 1st_Vout_2 cap_res2 sky130_fd_pr__cap_mim_m3_1 l=2 w=2
X93 w_37690_1390# w_37690_1390# w_37690_1390# w_37690_1390# sky130_fd_pr__pfet_01v8 ad=0.4 pd=2.4 as=2.4 ps=14.4 w=2 l=0.15
X94 1st_Vout_2 cap_res2 sky130_fd_pr__cap_mim_m3_1 l=2 w=2
X95 1st_Vout_1 cap_res1 sky130_fd_pr__cap_mim_m3_1 l=2 w=2
X96 w_32720_30# 1st_Vout_2 PFET_GATE_10uA w_32720_30# sky130_fd_pr__pfet_01v8 ad=0.2 pd=1.4 as=0.2 ps=1.4 w=1 l=0.2
X97 w_32720_30# w_32720_30# V_TOP w_32720_30# sky130_fd_pr__pfet_01v8 ad=0.4 pd=2.8 as=0.2 ps=1.4 w=1 l=0.2
X98 w_32720_30# a_36200_20# a_36200_20# w_32720_30# sky130_fd_pr__pfet_01v8 ad=0.2 pd=1.4 as=0.2 ps=1.4 w=1 l=0.2
X99 1st_Vout_1 cap_res1 sky130_fd_pr__cap_mim_m3_1 l=2 w=2
X100 V_TOP m1_35910_n9110# sky130_fd_pr__cap_mim_m3_1 l=2 w=2
X101 w_32750_1390# V_TOP ERR_AMP_REF w_32750_1390# sky130_fd_pr__pfet_01v8 ad=0.6 pd=3.4 as=0.6 ps=3.4 w=3 l=0.5
X102 w_32720_30# V_mir1 1st_Vout_1 w_32720_30# sky130_fd_pr__pfet_01v8 ad=0.2 pd=1.4 as=0.2 ps=1.4 w=1 l=0.2
X103 1st_Vout_1 cap_res1 sky130_fd_pr__cap_mim_m3_1 l=2 w=2
X104 Vin- a_32970_n7928# sky130_fd_pr__rf_pnp_05v5_W3p40L3p40_8/Base sky130_fd_pr__res_xhigh_po_0p35 l=6
X105 w_32750_1390# V_TOP START_UP w_32750_1390# sky130_fd_pr__pfet_01v8 ad=0.6 pd=3.4 as=0.6 ps=3.4 w=3 l=0.5
X106 sky130_fd_pr__rf_pnp_05v5_W3p40L3p40_8/Base START_UP_NFET1 START_UP_NFET1 sky130_fd_pr__rf_pnp_05v5_W3p40L3p40_8/Base sky130_fd_pr__nfet_01v8 ad=0.4 pd=2.8 as=0.2 ps=1.4 w=1 l=10
X107 1st_Vout_1 cap_res1 sky130_fd_pr__cap_mim_m3_1 l=2 w=2
X108 w_32630_2310# PFET_GATE_10uA V_CMFB_S3 w_32630_2310# sky130_fd_pr__pfet_01v8 ad=0.2 pd=1.4 as=0.2 ps=1.4 w=1 l=0.15
X109 w_32630_2310# PFET_GATE_10uA V_CMFB_S3 w_32630_2310# sky130_fd_pr__pfet_01v8 ad=0.2 pd=1.4 as=0.2 ps=1.4 w=1 l=0.15
X110 w_32720_30# V_mir1 V_mir1 w_32720_30# sky130_fd_pr__pfet_01v8 ad=0.2 pd=1.4 as=0.2 ps=1.4 w=1 l=0.2
X111 V_TOP m1_35910_n9110# sky130_fd_pr__cap_mim_m3_1 l=2 w=2
X112 sky130_fd_pr__rf_pnp_05v5_W3p40L3p40_8/Base NFET_GATE_10uA V_CMFB_S4 sky130_fd_pr__rf_pnp_05v5_W3p40L3p40_8/Base sky130_fd_pr__nfet_01v8 ad=0.2 pd=1.4 as=0.2 ps=1.4 w=1 l=0.15
X113 sky130_fd_pr__rf_pnp_05v5_W3p40L3p40_8/Base NFET_GATE_10uA V_CMFB_S4 sky130_fd_pr__rf_pnp_05v5_W3p40L3p40_8/Base sky130_fd_pr__nfet_01v8 ad=0.2 pd=1.4 as=0.2 ps=1.4 w=1 l=0.15
X114 V_TOP m1_35910_n9110# sky130_fd_pr__cap_mim_m3_1 l=2 w=2
X115 a_32440_n6570# a_32320_n7778# sky130_fd_pr__rf_pnp_05v5_W3p40L3p40_8/Base sky130_fd_pr__res_xhigh_po_0p35 l=4
X116 1st_Vout_2 cap_res2 sky130_fd_pr__cap_mim_m3_1 l=2 w=2
X117 V_TOP m1_35910_n9110# sky130_fd_pr__cap_mim_m3_1 l=2 w=2
X118 a_38570_n6514# sky130_fd_pr__rf_pnp_05v5_W3p40L3p40_8/Base sky130_fd_pr__rf_pnp_05v5_W3p40L3p40_8/Base sky130_fd_pr__res_xhigh_po_0p35 l=4.28
X119 a_33090_n6320# a_32560_n7778# sky130_fd_pr__rf_pnp_05v5_W3p40L3p40_8/Base sky130_fd_pr__res_xhigh_po_0p35 l=6
X120 sky130_fd_pr__rf_pnp_05v5_W3p40L3p40_8/Base sky130_fd_pr__rf_pnp_05v5_W3p40L3p40_8/Base VB3_CUR_BIAS sky130_fd_pr__rf_pnp_05v5_W3p40L3p40_8/Base sky130_fd_pr__nfet_01v8 ad=0.4 pd=2.8 as=0.2 ps=1.4 w=1 l=0.15
X121 VB3_CUR_BIAS NFET_GATE_10uA sky130_fd_pr__rf_pnp_05v5_W3p40L3p40_8/Base sky130_fd_pr__rf_pnp_05v5_W3p40L3p40_8/Base sky130_fd_pr__nfet_01v8 ad=0.2 pd=1.4 as=0.2 ps=1.4 w=1 l=0.15
X122 1st_Vout_1 V_mir1 w_32720_30# w_32720_30# sky130_fd_pr__pfet_01v8 ad=0.2 pd=1.4 as=0.2 ps=1.4 w=1 l=0.2
X123 w_32750_1390# w_32750_1390# V_TOP w_32750_1390# sky130_fd_pr__pfet_01v8 ad=0.45 pd=2.9 as=0.2 ps=1.4 w=1 l=0.15
X124 1st_Vout_2 a_36200_20# w_32720_30# w_32720_30# sky130_fd_pr__pfet_01v8 ad=0.2 pd=1.4 as=0.2 ps=1.4 w=1 l=0.2
X125 PFET_GATE_10uA 1st_Vout_2 w_32720_30# w_32720_30# sky130_fd_pr__pfet_01v8 ad=0.2 pd=1.4 as=0.2 ps=1.4 w=1 l=0.2
X126 V_TOP 1st_Vout_1 w_32720_30# w_32720_30# sky130_fd_pr__pfet_01v8 ad=0.2 pd=1.4 as=0.2 ps=1.4 w=1 l=0.2
X127 a_37920_n6320# sky130_fd_pr__rf_pnp_05v5_W3p40L3p40_8/Base sky130_fd_pr__rf_pnp_05v5_W3p40L3p40_8/Base sky130_fd_pr__res_xhigh_po_0p35 l=6
X128 V_p_1 Vin- V_mir1 sky130_fd_pr__rf_pnp_05v5_W3p40L3p40_8/Base sky130_fd_pr__nfet_01v8 ad=0.5 pd=2.9 as=1 ps=5.8 w=2.5 l=0.2
X129 ERR_AMP_REF V_TOP w_32750_1390# w_32750_1390# sky130_fd_pr__pfet_01v8 ad=0.6 pd=3.4 as=0.6 ps=3.4 w=3 l=0.5
X130 PFET_GATE_10uA cap_res2 sky130_fd_pr__rf_pnp_05v5_W3p40L3p40_8/Base sky130_fd_pr__res_high_po_0p35 l=2.05
X131 V_CUR_REF_REG PFET_GATE_10uA w_32630_2310# w_32630_2310# sky130_fd_pr__pfet_01v8 ad=0.2 pd=1.4 as=0.2 ps=1.4 w=1 l=0.15
X132 VB2_CUR_BIAS NFET_GATE_10uA sky130_fd_pr__rf_pnp_05v5_W3p40L3p40_8/Base sky130_fd_pr__rf_pnp_05v5_W3p40L3p40_8/Base sky130_fd_pr__nfet_01v8 ad=0.2 pd=1.4 as=0.2 ps=1.4 w=1 l=0.15
X133 sky130_fd_pr__rf_pnp_05v5_W3p40L3p40_8/Base NFET_GATE_10uA VB2_CUR_BIAS sky130_fd_pr__rf_pnp_05v5_W3p40L3p40_8/Base sky130_fd_pr__nfet_01v8 ad=0.2 pd=1.4 as=0.2 ps=1.4 w=1 l=0.15
X134 V_TOP cap_res1 sky130_fd_pr__rf_pnp_05v5_W3p40L3p40_8/Base sky130_fd_pr__res_high_po_0p35 l=2.05
X135 w_32630_2310# PFET_GATE_10uA TAIL_CUR_MIR_BIAS w_32630_2310# sky130_fd_pr__pfet_01v8 ad=0.2 pd=1.4 as=0.2 ps=1.4 w=1 l=0.15
X136 Vin+ V_TOP w_32750_1390# w_32750_1390# sky130_fd_pr__pfet_01v8 ad=0.6 pd=3.4 as=0.6 ps=3.4 w=3 l=0.5
X137 w_32720_30# 1st_Vout_2 PFET_GATE_10uA w_32720_30# sky130_fd_pr__pfet_01v8 ad=0.2 pd=1.4 as=0.2 ps=1.4 w=1 l=0.2
X138 Vin- START_UP V_TOP w_32750_1390# sky130_fd_pr__pfet_01v8 ad=0.2 pd=1.4 as=0.2 ps=1.4 w=1 l=0.15
X139 NFET_GATE_10uA sky130_fd_pr__rf_pnp_05v5_W3p40L3p40_8/Base sky130_fd_pr__rf_pnp_05v5_W3p40L3p40_8/Base sky130_fd_pr__rf_pnp_05v5_W3p40L3p40_8/Base sky130_fd_pr__nfet_01v8 ad=0.2 pd=1.4 as=0.4 ps=2.8 w=1 l=0.15
X140 V_CMFB_S1 w_32630_2310# w_32630_2310# w_32630_2310# sky130_fd_pr__pfet_01v8 ad=0.2 pd=1.4 as=0.4 ps=2.8 w=1 l=0.15
X141 w_32720_30# V_mir1 1st_Vout_1 w_32720_30# sky130_fd_pr__pfet_01v8 ad=0.2 pd=1.4 as=0.2 ps=1.4 w=1 l=0.2
X142 V_p_2 a_33140_n2120# sky130_fd_pr__rf_pnp_05v5_W3p40L3p40_8/Base sky130_fd_pr__rf_pnp_05v5_W3p40L3p40_8/Base sky130_fd_pr__nfet_01v8 ad=1 pd=5.8 as=1 ps=5.8 w=2.5 l=5
X143 sky130_fd_pr__rf_pnp_05v5_W3p40L3p40_8/Base sky130_fd_pr__rf_pnp_05v5_W3p40L3p40_8/Base sky130_fd_pr__rf_pnp_05v5_W3p40L3p40_8/Base sky130_fd_pr__rf_pnp_05v5_W3p40L3p40_8/Base sky130_fd_pr__nfet_01v8 ad=0.2 pd=1.4 as=69.292 ps=397.5 w=1 l=0.15
X144 w_32720_30# a_36200_20# 1st_Vout_2 w_32720_30# sky130_fd_pr__pfet_01v8 ad=0.2 pd=1.4 as=0.2 ps=1.4 w=1 l=0.2
X145 1st_Vout_2 cap_res2 sky130_fd_pr__cap_mim_m3_1 l=2 w=2
X146 w_32720_30# 1st_Vout_1 V_TOP w_32720_30# sky130_fd_pr__pfet_01v8 ad=0.2 pd=1.4 as=0.2 ps=1.4 w=1 l=0.2
X147 1st_Vout_2 cap_res2 sky130_fd_pr__cap_mim_m3_1 l=2 w=2
X148 1st_Vout_2 cap_res2 sky130_fd_pr__cap_mim_m3_1 l=2 w=2
X149 1st_Vout_2 cap_res2 sky130_fd_pr__cap_mim_m3_1 l=2 w=2
X150 w_32630_2310# PFET_GATE_10uA TAIL_CUR_MIR_BIAS w_32630_2310# sky130_fd_pr__pfet_01v8 ad=0.2 pd=1.4 as=0.2 ps=1.4 w=1 l=0.15
X151 1st_Vout_2 cap_res2 sky130_fd_pr__cap_mim_m3_1 l=2 w=2
X152 1st_Vout_1 cap_res1 sky130_fd_pr__cap_mim_m3_1 l=2 w=2
X153 sky130_fd_pr__rf_pnp_05v5_W3p40L3p40_8/Base sky130_fd_pr__rf_pnp_05v5_W3p40L3p40_8/Base VB2_CUR_BIAS sky130_fd_pr__rf_pnp_05v5_W3p40L3p40_8/Base sky130_fd_pr__nfet_01v8 ad=0.4 pd=2.8 as=0.2 ps=1.4 w=1 l=0.15
X154 1st_Vout_2 a_36200_20# w_32720_30# w_32720_30# sky130_fd_pr__pfet_01v8 ad=0.2 pd=1.4 as=0.2 ps=1.4 w=1 l=0.2
X155 1st_Vout_1 cap_res1 sky130_fd_pr__cap_mim_m3_1 l=2 w=2
X156 ERR_AMP_REF a_38690_n7778# sky130_fd_pr__rf_pnp_05v5_W3p40L3p40_8/Base sky130_fd_pr__res_xhigh_po_0p35 l=4.28
X157 V_mir1 V_mir1 w_32720_30# w_32720_30# sky130_fd_pr__pfet_01v8 ad=0.2 pd=1.4 as=0.2 ps=1.4 w=1 l=0.2
X158 1st_Vout_1 Vin+ V_p_1 sky130_fd_pr__rf_pnp_05v5_W3p40L3p40_8/Base sky130_fd_pr__nfet_01v8 ad=1 pd=5.8 as=0.5 ps=2.9 w=2.5 l=0.2
X159 1st_Vout_2 cap_res2 sky130_fd_pr__cap_mim_m3_1 l=2 w=2
X160 PFET_GATE_10uA w_32720_30# w_32720_30# w_32720_30# sky130_fd_pr__pfet_01v8 ad=0.2 pd=1.4 as=0.4 ps=2.8 w=1 l=0.2
X161 1st_Vout_1 cap_res1 sky130_fd_pr__cap_mim_m3_1 l=2 w=2
X162 V_TOP m1_35910_n9110# sky130_fd_pr__cap_mim_m3_1 l=2 w=2
X163 V_TOP 1st_Vout_1 w_32720_30# w_32720_30# sky130_fd_pr__pfet_01v8 ad=0.2 pd=1.4 as=0.2 ps=1.4 w=1 l=0.2
X164 a_36200_20# a_36200_20# w_32720_30# w_32720_30# sky130_fd_pr__pfet_01v8 ad=0.2 pd=1.4 as=0.2 ps=1.4 w=1 l=0.2
X165 V_TOP m1_35910_n9110# sky130_fd_pr__cap_mim_m3_1 l=2 w=2
X166 1st_Vout_1 cap_res1 sky130_fd_pr__cap_mim_m3_1 l=2 w=2
X167 V_TOP m1_35910_n9110# sky130_fd_pr__cap_mim_m3_1 l=2 w=2
X168 w_32750_1390# V_TOP Vin+ w_32750_1390# sky130_fd_pr__pfet_01v8 ad=0.6 pd=3.4 as=0.6 ps=3.4 w=3 l=0.5
X169 V_TOP m1_35910_n9110# sky130_fd_pr__cap_mim_m3_1 l=2 w=2
X170 1st_Vout_2 cap_res2 sky130_fd_pr__cap_mim_m3_1 l=2 w=2
X171 a_33090_n6320# a_32970_n7928# sky130_fd_pr__rf_pnp_05v5_W3p40L3p40_8/Base sky130_fd_pr__res_xhigh_po_0p35 l=6
X172 w_32630_2310# PFET_GATE_10uA NFET_GATE_10uA w_32630_2310# sky130_fd_pr__pfet_01v8 ad=0.2 pd=1.4 as=0.2 ps=1.4 w=1 l=0.15
X173 w_32630_2310# PFET_GATE_10uA TAIL_CUR_MIR_BIAS w_32630_2310# sky130_fd_pr__pfet_01v8 ad=0.2 pd=1.4 as=0.2 ps=1.4 w=1 l=0.15
X174 V_TOP m1_35910_n9110# sky130_fd_pr__cap_mim_m3_1 l=2 w=2
X175 V_CMFB_S1 PFET_GATE_10uA w_32630_2310# w_32630_2310# sky130_fd_pr__pfet_01v8 ad=0.2 pd=1.4 as=0.2 ps=1.4 w=1 l=0.15
X176 V_CMFB_S4 NFET_GATE_10uA sky130_fd_pr__rf_pnp_05v5_W3p40L3p40_8/Base sky130_fd_pr__rf_pnp_05v5_W3p40L3p40_8/Base sky130_fd_pr__nfet_01v8 ad=0.2 pd=1.4 as=0.2 ps=1.4 w=1 l=0.15
X177 V_CMFB_S4 sky130_fd_pr__rf_pnp_05v5_W3p40L3p40_8/Base sky130_fd_pr__rf_pnp_05v5_W3p40L3p40_8/Base sky130_fd_pr__rf_pnp_05v5_W3p40L3p40_8/Base sky130_fd_pr__nfet_01v8 ad=0.2 pd=1.4 as=0.4 ps=2.8 w=1 l=0.15
X178 START_UP V_TOP w_32750_1390# w_32750_1390# sky130_fd_pr__pfet_01v8 ad=0.6 pd=3.4 as=0.6 ps=3.4 w=3 l=0.5
X179 w_32720_30# V_mir1 V_mir1 w_32720_30# sky130_fd_pr__pfet_01v8 ad=0.2 pd=1.4 as=0.2 ps=1.4 w=1 l=0.2
X180 V_TOP w_32750_1390# w_32750_1390# w_32750_1390# sky130_fd_pr__pfet_01v8 ad=0.2 pd=1.4 as=0.4 ps=2.8 w=1 l=0.15
X181 w_32720_30# 1st_Vout_1 V_TOP w_32720_30# sky130_fd_pr__pfet_01v8 ad=0.2 pd=1.4 as=0.2 ps=1.4 w=1 l=0.2
X182 V_TOP m1_35910_n9110# sky130_fd_pr__cap_mim_m3_1 l=2 w=2
X183 VB3_CUR_BIAS NFET_GATE_10uA sky130_fd_pr__rf_pnp_05v5_W3p40L3p40_8/Base sky130_fd_pr__rf_pnp_05v5_W3p40L3p40_8/Base sky130_fd_pr__nfet_01v8 ad=0.2 pd=1.4 as=0.2 ps=1.4 w=1 l=0.15
X184 sky130_fd_pr__rf_pnp_05v5_W3p40L3p40_8/Base NFET_GATE_10uA VB3_CUR_BIAS sky130_fd_pr__rf_pnp_05v5_W3p40L3p40_8/Base sky130_fd_pr__nfet_01v8 ad=0.2 pd=1.4 as=0.2 ps=1.4 w=1 l=0.15
X185 w_32630_2310# PFET_GATE_10uA TAIL_CUR_MIR_BIAS w_32630_2310# sky130_fd_pr__pfet_01v8 ad=0.2 pd=1.4 as=0.2 ps=1.4 w=1 l=0.15
X186 a_37920_n6320# a_38040_n7928# sky130_fd_pr__rf_pnp_05v5_W3p40L3p40_8/Base sky130_fd_pr__res_xhigh_po_0p35 l=6
X187 V_CMFB_S1 PFET_GATE_10uA w_32630_2310# w_32630_2310# sky130_fd_pr__pfet_01v8 ad=0.2 pd=1.4 as=0.2 ps=1.4 w=1 l=0.15
X188 V_TOP m1_35910_n9110# sky130_fd_pr__cap_mim_m3_1 l=2 w=2
X189 V_TOP w_32720_30# w_32720_30# w_32720_30# sky130_fd_pr__pfet_01v8 ad=0.2 pd=1.4 as=0.4 ps=2.8 w=1 l=0.2
X190 a_32440_n6570# a_32560_n7778# sky130_fd_pr__rf_pnp_05v5_W3p40L3p40_8/Base sky130_fd_pr__res_xhigh_po_0p35 l=4
X191 V_CMFB_S2 NFET_GATE_10uA sky130_fd_pr__rf_pnp_05v5_W3p40L3p40_8/Base sky130_fd_pr__rf_pnp_05v5_W3p40L3p40_8/Base sky130_fd_pr__nfet_01v8 ad=0.2 pd=1.4 as=0.2 ps=1.4 w=1 l=0.15
X192 VB2_CUR_BIAS sky130_fd_pr__rf_pnp_05v5_W3p40L3p40_8/Base sky130_fd_pr__rf_pnp_05v5_W3p40L3p40_8/Base sky130_fd_pr__rf_pnp_05v5_W3p40L3p40_8/Base sky130_fd_pr__nfet_01v8 ad=0.2 pd=1.4 as=0.4 ps=2.8 w=1 l=0.15
X193 V_TOP m1_35910_n9110# sky130_fd_pr__cap_mim_m3_1 l=2 w=2
X194 sky130_fd_pr__rf_pnp_05v5_W3p40L3p40_8/Base sky130_fd_pr__rf_pnp_05v5_W3p40L3p40_8/Base V_CMFB_S2 sky130_fd_pr__rf_pnp_05v5_W3p40L3p40_8/Base sky130_fd_pr__nfet_01v8 ad=0.4 pd=2.8 as=0.2 ps=1.4 w=1 l=0.15
X195 sky130_fd_pr__rf_pnp_05v5_W3p40L3p40_8/Base NFET_GATE_10uA V_CMFB_S2 sky130_fd_pr__rf_pnp_05v5_W3p40L3p40_8/Base sky130_fd_pr__nfet_01v8 ad=0.2 pd=1.4 as=0.2 ps=1.4 w=1 l=0.15
X196 V_CMFB_S3 PFET_GATE_10uA w_32630_2310# w_32630_2310# sky130_fd_pr__pfet_01v8 ad=0.2 pd=1.4 as=0.2 ps=1.4 w=1 l=0.15
X197 1st_Vout_1 V_mir1 w_32720_30# w_32720_30# sky130_fd_pr__pfet_01v8 ad=0.2 pd=1.4 as=0.2 ps=1.4 w=1 l=0.2
X198 sky130_fd_pr__rf_pnp_05v5_W3p40L3p40_8/Base a_33140_n2120# PFET_GATE_10uA sky130_fd_pr__rf_pnp_05v5_W3p40L3p40_8/Base sky130_fd_pr__nfet_01v8 ad=1 pd=5.8 as=1 ps=5.8 w=2.5 l=5
X199 V_CMFB_S3 PFET_GATE_10uA w_32630_2310# w_32630_2310# sky130_fd_pr__pfet_01v8 ad=0.2 pd=1.4 as=0.2 ps=1.4 w=1 l=0.15
X200 w_32750_1390# V_TOP START_UP w_32750_1390# sky130_fd_pr__pfet_01v8 ad=0.6 pd=3.4 as=0.6 ps=3.4 w=3 l=0.5
X201 V_TOP m1_35910_n9110# sky130_fd_pr__cap_mim_m3_1 l=2 w=2
X202 1st_Vout_2 cap_res2 sky130_fd_pr__cap_mim_m3_1 l=2 w=2
.ends

.subckt two_stage_opamp_dummy_magic_24 V_CMFB_S1 V_CMFB_S3 Vb3 Vb2 V_CMFB_S2 V_CMFB_S4
+ VOUT- VOUT+ V_tail_gate V_err_amp_ref V_err_gate V_tot Vb1 VIN- VIN+ V_p_mir a_109160_2280#
+ w_109060_7020#
X0 VOUT- X w_109060_7020# w_109060_7020# sky130_fd_pr__pfet_01v8 ad=1.2 pd=6.4 as=1.2 ps=6.4 w=6 l=0.15
X1 VOUT- V_b_2nd_stage a_109160_2280# a_109160_2280# sky130_fd_pr__nfet_01v8 ad=1.4 pd=7.4 as=1.4 ps=7.4 w=7 l=0.6
X2 VOUT+ cap_res_Y sky130_fd_pr__cap_mim_m3_1 l=2 w=2
X3 VOUT+ cap_res_Y sky130_fd_pr__cap_mim_m3_1 l=2 w=2
X4 w_109060_7020# X V_CMFB_S2 a_109160_2280# sky130_fd_pr__nfet_01v8 ad=0.6 pd=3.4 as=0.6 ps=3.4 w=3 l=0.15
X5 VOUT- cap_res_X sky130_fd_pr__cap_mim_m3_1 l=2 w=2
X6 VOUT- cap_res_X sky130_fd_pr__cap_mim_m3_1 l=2 w=2
X7 VOUT- cap_res_X sky130_fd_pr__cap_mim_m3_1 l=2 w=2
X8 V_source err_amp_out a_109160_2280# a_109160_2280# sky130_fd_pr__nfet_01v8 ad=0.5 pd=2.9 as=0.5 ps=2.9 w=2.5 l=0.15
X9 VD1 VIN- V_source a_109160_2280# sky130_fd_pr__nfet_01v8 ad=0.3 pd=1.9 as=0.3 ps=1.9 w=1.5 l=0.15
X10 VOUT+ cap_res_Y sky130_fd_pr__cap_mim_m3_1 l=2 w=2
X11 w_109060_7020# Vb3 VD4 w_109060_7020# sky130_fd_pr__pfet_01v8 ad=0.7 pd=3.9 as=0.7 ps=3.9 w=3.5 l=0.2
X12 VOUT- cap_res_X sky130_fd_pr__cap_mim_m3_1 l=2 w=2
X13 V_b_2nd_stage a_108650_n794# a_109160_2280# sky130_fd_pr__res_xhigh_po_0p35 l=2.63
X14 VOUT- V_b_2nd_stage a_109160_2280# a_109160_2280# sky130_fd_pr__nfet_01v8 ad=1.4 pd=7.4 as=1.4 ps=7.4 w=7 l=0.6
X15 V_err_mir_p V_err_amp_ref V_err_gate w_109060_7020# sky130_fd_pr__pfet_01v8 ad=0.5 pd=2.9 as=0.5 ps=2.9 w=2.5 l=0.15
X16 err_amp_mir w_109060_7020# w_109060_7020# w_109060_7020# sky130_fd_pr__pfet_01v8 ad=0.5 pd=2.9 as=1 ps=5.8 w=2.5 l=0.15
X17 VOUT+ cap_res_Y sky130_fd_pr__cap_mim_m3_1 l=2 w=2
X18 VD3 Vb2 X VD3 sky130_fd_pr__pfet_01v8 ad=0.7 pd=3.9 as=0.7 ps=3.9 w=3.5 l=0.2
X19 VOUT+ cap_res_Y sky130_fd_pr__cap_mim_m3_1 l=2 w=2
X20 VOUT+ cap_res_Y sky130_fd_pr__cap_mim_m3_1 l=2 w=2
X21 VD2 Vb1 Y a_109160_2280# sky130_fd_pr__nfet_01v8 ad=0.3 pd=1.9 as=0.3 ps=1.9 w=1.5 l=0.15
X22 VOUT+ cap_res_Y sky130_fd_pr__cap_mim_m3_1 l=2 w=2
X23 VD1 Vb1 X a_109160_2280# sky130_fd_pr__nfet_01v8 ad=0.3 pd=1.9 as=0.3 ps=1.9 w=1.5 l=0.15
X24 VOUT+ cap_res_Y sky130_fd_pr__cap_mim_m3_1 l=2 w=2
X25 VOUT+ cap_res_Y sky130_fd_pr__cap_mim_m3_1 l=2 w=2
X26 VOUT- cap_res_X sky130_fd_pr__cap_mim_m3_1 l=2 w=2
X27 VOUT+ w_109060_7020# w_109060_7020# w_109060_7020# sky130_fd_pr__pfet_01v8 ad=1.2 pd=6.4 as=2.4 ps=12.8 w=6 l=0.15
X28 VOUT- cap_res_X sky130_fd_pr__cap_mim_m3_1 l=2 w=2
X29 VOUT+ cap_res_Y sky130_fd_pr__cap_mim_m3_1 l=2 w=2
X30 VOUT- cap_res_X sky130_fd_pr__cap_mim_m3_1 l=2 w=2
X31 a_109160_2280# a_109160_2280# VD2 a_109160_2280# sky130_fd_pr__nfet_01v8 ad=0.6 pd=3.8 as=0.3 ps=1.9 w=1.5 l=0.15
X32 VOUT- cap_res_X sky130_fd_pr__cap_mim_m3_1 l=2 w=2
X33 VOUT+ cap_res_Y sky130_fd_pr__cap_mim_m3_1 l=2 w=2
X34 VOUT+ cap_res_Y sky130_fd_pr__cap_mim_m3_1 l=2 w=2
X35 w_109060_7020# w_109060_7020# VOUT+ w_109060_7020# sky130_fd_pr__pfet_01v8 ad=2.4 pd=12.8 as=1.2 ps=6.4 w=6 l=0.15
X36 VOUT- cap_res_X sky130_fd_pr__cap_mim_m3_1 l=2 w=2
X37 V_CMFB_S3 Y a_109160_2280# w_109060_7020# sky130_fd_pr__pfet_01v8 ad=0.4 pd=2.4 as=0.4 ps=2.4 w=2 l=0.15
X38 Y Vb2 VD4 VD4 sky130_fd_pr__pfet_01v8 ad=0.7 pd=3.9 as=0.7 ps=3.9 w=3.5 l=0.2
X39 VOUT+ cap_res_Y sky130_fd_pr__cap_mim_m3_1 l=2 w=2
X40 VOUT+ cap_res_Y sky130_fd_pr__cap_mim_m3_1 l=2 w=2
X41 a_109160_2280# V_tail_gate V_source a_109160_2280# sky130_fd_pr__nfet_01v8 ad=0.5 pd=2.9 as=0.5 ps=2.9 w=2.5 l=0.15
X42 Y Vb1 VD2 a_109160_2280# sky130_fd_pr__nfet_01v8 ad=0.3 pd=1.9 as=0.3 ps=1.9 w=1.5 l=0.15
X43 VOUT+ cap_res_Y sky130_fd_pr__cap_mim_m3_1 l=2 w=2
X44 VOUT+ cap_res_Y sky130_fd_pr__cap_mim_m3_1 l=2 w=2
X45 VOUT+ cap_res_Y sky130_fd_pr__cap_mim_m3_1 l=2 w=2
X46 VOUT- cap_res_X sky130_fd_pr__cap_mim_m3_1 l=2 w=2
X47 VOUT+ cap_res_Y sky130_fd_pr__cap_mim_m3_1 l=2 w=2
X48 V_source V_tail_gate a_109160_2280# a_109160_2280# sky130_fd_pr__nfet_01v8 ad=0.5 pd=2.9 as=0.5 ps=2.9 w=2.5 l=0.15
X49 VOUT- cap_res_X sky130_fd_pr__cap_mim_m3_1 l=2 w=2
X50 X Vb2 VD3 VD3 sky130_fd_pr__pfet_01v8 ad=0.7 pd=3.9 as=0.7 ps=3.9 w=3.5 l=0.2
X51 a_109160_2280# X V_CMFB_S1 w_109060_7020# sky130_fd_pr__pfet_01v8 ad=0.4 pd=2.4 as=0.4 ps=2.4 w=2 l=0.15
X52 VOUT- cap_res_X sky130_fd_pr__cap_mim_m3_1 l=2 w=2
X53 VOUT- cap_res_X sky130_fd_pr__cap_mim_m3_1 l=2 w=2
X54 V_p_mir V_tail_gate a_109160_2280# a_109160_2280# sky130_fd_pr__nfet_01v8 ad=0.5 pd=2.9 as=0.5 ps=2.9 w=2.5 l=0.15
X55 w_109060_7020# X V_CMFB_S2 a_109160_2280# sky130_fd_pr__nfet_01v8 ad=0.6 pd=3.4 as=0.6 ps=3.4 w=3 l=0.15
X56 VOUT+ cap_res_Y sky130_fd_pr__cap_mim_m3_1 l=2 w=2
X57 VOUT+ cap_res_Y sky130_fd_pr__cap_mim_m3_1 l=2 w=2
X58 VD1 a_109160_2280# a_109160_2280# a_109160_2280# sky130_fd_pr__nfet_01v8 ad=0.3 pd=1.9 as=0.6 ps=3.8 w=1.5 l=0.15