* PEX produced on Sun Jul 13 02:46:43 PM CEST 2025 using /foss/tools/osic-multitool/iic-pex.sh with m=3 and s=1
* NGSPICE file created from bgr_opamp_dummy_magic_10.ext - technology: sky130A

.subckt bgr_opamp_dummy_magic_10 VDDA GNDA VOUT+ VOUT- VIN+ VIN-
X0 GNDA.t201 bgr_0.NFET_GATE_10uA.t5 two_stage_opamp_dummy_magic_14_0.Vb3.t2 GNDA.t200 sky130_fd_pr__nfet_01v8 ad=0.2 pd=1.4 as=0.2 ps=1.4 w=1 l=0.15
X1 bgr_0.V_TOP.t9 VDDA.t372 VDDA.t374 VDDA.t373 sky130_fd_pr__pfet_01v8 ad=0.2 pd=1.4 as=0.45 ps=2.9 w=1 l=0.15
X2 VOUT-.t19 two_stage_opamp_dummy_magic_14_0.cap_res_X.t138 sky130_fd_pr__cap_mim_m3_1 l=2 w=2
X3 VOUT+.t19 two_stage_opamp_dummy_magic_14_0.cap_res_Y.t138 sky130_fd_pr__cap_mim_m3_1 l=2 w=2
X4 two_stage_opamp_dummy_magic_14_0.V_CMFB_S2.t9 two_stage_opamp_dummy_magic_14_0.X.t25 VDDA.t75 GNDA.t60 sky130_fd_pr__nfet_01v8 ad=0.6 pd=3.4 as=0.6 ps=3.4 w=3 l=0.15
X5 VOUT+.t20 two_stage_opamp_dummy_magic_14_0.cap_res_Y.t137 sky130_fd_pr__cap_mim_m3_1 l=2 w=2
X6 GNDA.t312 two_stage_opamp_dummy_magic_14_0.V_b_2nd_stage.t2 VOUT-.t18 GNDA.t311 sky130_fd_pr__nfet_01v8 ad=1.4 pd=7.4 as=1.4 ps=7.4 w=7 l=0.6
X7 VDDA.t29 bgr_0.V_TOP.t14 two_stage_opamp_dummy_magic_14_0.V_err_amp_ref.t3 VDDA.t28 sky130_fd_pr__pfet_01v8 ad=0.6 pd=3.4 as=0.6 ps=3.4 w=3 l=0.5
X8 VDDA.t371 VDDA.t369 two_stage_opamp_dummy_magic_14_0.err_amp_out.t3 VDDA.t370 sky130_fd_pr__pfet_01v8 ad=1 pd=5.8 as=0.5 ps=2.9 w=2.5 l=0.15
X9 VOUT+.t21 two_stage_opamp_dummy_magic_14_0.cap_res_Y.t136 sky130_fd_pr__cap_mim_m3_1 l=2 w=2
X10 two_stage_opamp_dummy_magic_14_0.V_source.t29 two_stage_opamp_dummy_magic_14_0.V_tail_gate.t12 GNDA.t305 GNDA.t304 sky130_fd_pr__nfet_01v8 ad=0.5 pd=2.9 as=0.5 ps=2.9 w=2.5 l=0.15
X11 bgr_0.Vin+.t3 bgr_0.V_TOP.t15 VDDA.t97 VDDA.t96 sky130_fd_pr__pfet_01v8 ad=0.6 pd=3.4 as=0.6 ps=3.4 w=3 l=0.5
X12 VDDA.t261 two_stage_opamp_dummy_magic_14_0.Vb3.t8 two_stage_opamp_dummy_magic_14_0.VD3.t29 VDDA.t260 sky130_fd_pr__pfet_01v8 ad=0.7 pd=3.9 as=0.7 ps=3.9 w=3.5 l=0.2
X13 GNDA.t21 VDDA.t366 VDDA.t368 VDDA.t367 sky130_fd_pr__pfet_01v8 ad=0.4 pd=2.4 as=0.8 ps=4.8 w=2 l=0.15
X14 VDDA.t18 bgr_0.V_mir1.t17 bgr_0.1st_Vout_1.t5 VDDA.t17 sky130_fd_pr__pfet_01v8 ad=0.2 pd=1.4 as=0.2 ps=1.4 w=1 l=0.2
X15 VOUT+.t22 two_stage_opamp_dummy_magic_14_0.cap_res_Y.t135 sky130_fd_pr__cap_mim_m3_1 l=2 w=2
X16 bgr_0.1st_Vout_2.t11 bgr_0.cap_res2.t19 sky130_fd_pr__cap_mim_m3_1 l=2 w=2
X17 two_stage_opamp_dummy_magic_14_0.X.t23 two_stage_opamp_dummy_magic_14_0.Vb2.t11 two_stage_opamp_dummy_magic_14_0.VD3.t35 two_stage_opamp_dummy_magic_14_0.VD3.t34 sky130_fd_pr__pfet_01v8 ad=0.7 pd=3.9 as=0.7 ps=3.9 w=3.5 l=0.2
X18 VOUT+.t23 two_stage_opamp_dummy_magic_14_0.cap_res_Y.t134 sky130_fd_pr__cap_mim_m3_1 l=2 w=2
X19 bgr_0.1st_Vout_2.t3 bgr_0.V_CUR_REF_REG.t3 bgr_0.V_p_2.t9 GNDA.t96 sky130_fd_pr__nfet_01v8 ad=0.1 pd=0.9 as=0.1 ps=0.9 w=0.5 l=0.2
X20 VOUT+.t24 two_stage_opamp_dummy_magic_14_0.cap_res_Y.t133 sky130_fd_pr__cap_mim_m3_1 l=2 w=2
X21 VOUT+.t25 two_stage_opamp_dummy_magic_14_0.cap_res_Y.t132 sky130_fd_pr__cap_mim_m3_1 l=2 w=2
X22 a_7460_23988.t1 bgr_0.Vin+.t4 GNDA.t2 sky130_fd_pr__res_xhigh_po_0p35 l=6
X23 VDDA.t163 two_stage_opamp_dummy_magic_14_0.V_err_gate.t6 two_stage_opamp_dummy_magic_14_0.V_err_mir_p.t1 VDDA.t162 sky130_fd_pr__pfet_01v8 ad=0.5 pd=2.9 as=0.5 ps=2.9 w=2.5 l=0.15
X24 two_stage_opamp_dummy_magic_14_0.VD2.t12 two_stage_opamp_dummy_magic_14_0.Vb1.t6 two_stage_opamp_dummy_magic_14_0.Y.t16 GNDA.t160 sky130_fd_pr__nfet_01v8 ad=0.3 pd=1.9 as=0.3 ps=1.9 w=1.5 l=0.15
X25 VOUT+.t26 two_stage_opamp_dummy_magic_14_0.cap_res_Y.t131 sky130_fd_pr__cap_mim_m3_1 l=2 w=2
X26 two_stage_opamp_dummy_magic_14_0.VD2.t11 two_stage_opamp_dummy_magic_14_0.Vb1.t7 two_stage_opamp_dummy_magic_14_0.Y.t15 GNDA.t131 sky130_fd_pr__nfet_01v8 ad=0.3 pd=1.9 as=0.3 ps=1.9 w=1.5 l=0.15
X27 bgr_0.1st_Vout_2.t12 bgr_0.cap_res2.t18 sky130_fd_pr__cap_mim_m3_1 l=2 w=2
X28 VDDA.t365 VDDA.t363 bgr_0.NFET_GATE_10uA.t0 VDDA.t364 sky130_fd_pr__pfet_01v8 ad=0.4 pd=2.8 as=0.2 ps=1.4 w=1 l=0.15
X29 two_stage_opamp_dummy_magic_14_0.V_tail_gate.t7 bgr_0.PFET_GATE_10uA.t10 VDDA.t200 VDDA.t199 sky130_fd_pr__pfet_01v8 ad=0.2 pd=1.4 as=0.2 ps=1.4 w=1 l=0.15
X30 VDDA.t47 bgr_0.PFET_GATE_10uA.t11 two_stage_opamp_dummy_magic_14_0.V_tail_gate.t2 VDDA.t46 sky130_fd_pr__pfet_01v8 ad=0.2 pd=1.4 as=0.2 ps=1.4 w=1 l=0.15
X31 VOUT-.t20 two_stage_opamp_dummy_magic_14_0.cap_res_X.t137 sky130_fd_pr__cap_mim_m3_1 l=2 w=2
X32 VOUT-.t21 two_stage_opamp_dummy_magic_14_0.cap_res_X.t136 sky130_fd_pr__cap_mim_m3_1 l=2 w=2
X33 VOUT-.t22 two_stage_opamp_dummy_magic_14_0.cap_res_X.t135 sky130_fd_pr__cap_mim_m3_1 l=2 w=2
X34 two_stage_opamp_dummy_magic_14_0.V_source.t2 VIN-.t0 two_stage_opamp_dummy_magic_14_0.VD1.t9 GNDA.t3 sky130_fd_pr__nfet_01v8 ad=0.3 pd=1.9 as=0.3 ps=1.9 w=1.5 l=0.15
X35 VOUT+.t27 two_stage_opamp_dummy_magic_14_0.cap_res_Y.t130 sky130_fd_pr__cap_mim_m3_1 l=2 w=2
X36 bgr_0.1st_Vout_1.t11 bgr_0.cap_res1.t19 sky130_fd_pr__cap_mim_m3_1 l=2 w=2
X37 bgr_0.1st_Vout_2.t9 bgr_0.V_mir2.t17 VDDA.t395 VDDA.t394 sky130_fd_pr__pfet_01v8 ad=0.2 pd=1.4 as=0.2 ps=1.4 w=1 l=0.2
X38 VDDA.t99 bgr_0.V_TOP.t16 bgr_0.Vin-.t3 VDDA.t98 sky130_fd_pr__pfet_01v8 ad=0.6 pd=3.4 as=0.6 ps=3.4 w=3 l=0.5
X39 bgr_0.1st_Vout_1.t7 bgr_0.Vin+.t6 bgr_0.V_p_1.t9 GNDA.t123 sky130_fd_pr__nfet_01v8 ad=0.1 pd=0.9 as=0.1 ps=0.9 w=0.5 l=0.2
X40 GNDA.t86 VDDA.t415 bgr_0.V_p_2.t10 GNDA.t85 sky130_fd_pr__nfet_01v8 ad=1 pd=5.8 as=1 ps=5.8 w=2.5 l=5
X41 VDDA.t259 two_stage_opamp_dummy_magic_14_0.Vb3.t9 two_stage_opamp_dummy_magic_14_0.VD3.t28 VDDA.t258 sky130_fd_pr__pfet_01v8 ad=0.7 pd=3.9 as=0.7 ps=3.9 w=3.5 l=0.2
X42 VOUT+.t28 two_stage_opamp_dummy_magic_14_0.cap_res_Y.t129 sky130_fd_pr__cap_mim_m3_1 l=2 w=2
X43 bgr_0.cap_res2.t20 bgr_0.PFET_GATE_10uA.t6 GNDA.t10 sky130_fd_pr__res_high_po_0p35 l=2.05
X44 bgr_0.1st_Vout_1.t12 bgr_0.cap_res1.t18 sky130_fd_pr__cap_mim_m3_1 l=2 w=2
X45 GNDA.t293 GNDA.t291 two_stage_opamp_dummy_magic_14_0.err_amp_out.t2 GNDA.t292 sky130_fd_pr__nfet_01v8 ad=1 pd=5.8 as=0.5 ps=2.9 w=2.5 l=0.15
X46 two_stage_opamp_dummy_magic_14_0.V_CMFB_S4.t9 two_stage_opamp_dummy_magic_14_0.Y.t25 VDDA.t198 GNDA.t136 sky130_fd_pr__nfet_01v8 ad=0.6 pd=3.4 as=0.6 ps=3.4 w=3 l=0.15
X47 two_stage_opamp_dummy_magic_14_0.V_source.t36 VIN+.t0 two_stage_opamp_dummy_magic_14_0.VD2.t20 GNDA.t93 sky130_fd_pr__nfet_01v8 ad=0.3 pd=1.9 as=0.3 ps=1.9 w=1.5 l=0.15
X48 VOUT+.t29 two_stage_opamp_dummy_magic_14_0.cap_res_Y.t128 sky130_fd_pr__cap_mim_m3_1 l=2 w=2
X49 VOUT-.t23 two_stage_opamp_dummy_magic_14_0.cap_res_X.t134 sky130_fd_pr__cap_mim_m3_1 l=2 w=2
X50 VOUT-.t24 two_stage_opamp_dummy_magic_14_0.cap_res_X.t133 sky130_fd_pr__cap_mim_m3_1 l=2 w=2
X51 VOUT-.t25 two_stage_opamp_dummy_magic_14_0.cap_res_X.t132 sky130_fd_pr__cap_mim_m3_1 l=2 w=2
X52 VDDA.t399 bgr_0.1st_Vout_1.t13 bgr_0.V_TOP.t11 VDDA.t398 sky130_fd_pr__pfet_01v8 ad=0.2 pd=1.4 as=0.2 ps=1.4 w=1 l=0.2
X53 GNDA.t135 two_stage_opamp_dummy_magic_14_0.Y.t26 two_stage_opamp_dummy_magic_14_0.V_CMFB_S3.t9 VDDA.t197 sky130_fd_pr__pfet_01v8 ad=0.4 pd=2.4 as=0.4 ps=2.4 w=2 l=0.15
X54 bgr_0.V_TOP.t17 VDDA.t100 sky130_fd_pr__cap_mim_m3_1 l=2 w=2
X55 VOUT-.t26 two_stage_opamp_dummy_magic_14_0.cap_res_X.t131 sky130_fd_pr__cap_mim_m3_1 l=2 w=2
X56 two_stage_opamp_dummy_magic_14_0.VD4.t37 VDDA.t360 VDDA.t362 VDDA.t361 sky130_fd_pr__pfet_01v8 ad=0.7 pd=3.9 as=1.4 ps=7.8 w=3.5 l=0.2
X57 GNDA.t290 GNDA.t288 bgr_0.NFET_GATE_10uA.t1 GNDA.t289 sky130_fd_pr__nfet_01v8 ad=0.4 pd=2.8 as=0.2 ps=1.4 w=1 l=0.15
X58 bgr_0.START_UP.t3 bgr_0.V_TOP.t18 VDDA.t102 VDDA.t101 sky130_fd_pr__pfet_01v8 ad=0.6 pd=3.4 as=0.6 ps=3.4 w=3 l=0.5
X59 VOUT-.t27 two_stage_opamp_dummy_magic_14_0.cap_res_X.t130 sky130_fd_pr__cap_mim_m3_1 l=2 w=2
X60 two_stage_opamp_dummy_magic_14_0.V_err_gate.t2 bgr_0.NFET_GATE_10uA.t6 GNDA.t199 GNDA.t198 sky130_fd_pr__nfet_01v8 ad=0.2 pd=1.4 as=0.2 ps=1.4 w=1 l=0.15
X61 bgr_0.1st_Vout_1.t9 bgr_0.Vin+.t7 bgr_0.V_p_1.t8 GNDA.t124 sky130_fd_pr__nfet_01v8 ad=0.2 pd=1.8 as=0.1 ps=0.9 w=0.5 l=0.2
X62 VOUT-.t28 two_stage_opamp_dummy_magic_14_0.cap_res_X.t129 sky130_fd_pr__cap_mim_m3_1 l=2 w=2
X63 two_stage_opamp_dummy_magic_14_0.V_CMFB_S2.t8 two_stage_opamp_dummy_magic_14_0.X.t26 VDDA.t39 GNDA.t30 sky130_fd_pr__nfet_01v8 ad=0.6 pd=3.4 as=0.6 ps=3.4 w=3 l=0.15
X64 VOUT+.t30 two_stage_opamp_dummy_magic_14_0.cap_res_Y.t127 sky130_fd_pr__cap_mim_m3_1 l=2 w=2
X65 bgr_0.1st_Vout_1.t14 bgr_0.cap_res1.t17 sky130_fd_pr__cap_mim_m3_1 l=2 w=2
X66 two_stage_opamp_dummy_magic_14_0.V_err_p.t1 two_stage_opamp_dummy_magic_14_0.V_err_gate.t7 VDDA.t191 VDDA.t190 sky130_fd_pr__pfet_01v8 ad=0.5 pd=2.9 as=0.5 ps=2.9 w=2.5 l=0.15
X67 bgr_0.V_TOP.t19 VDDA.t103 sky130_fd_pr__cap_mim_m3_1 l=2 w=2
X68 bgr_0.V_mir2.t11 bgr_0.V_mir2.t10 VDDA.t87 VDDA.t86 sky130_fd_pr__pfet_01v8 ad=0.2 pd=1.4 as=0.2 ps=1.4 w=1 l=0.2
X69 two_stage_opamp_dummy_magic_14_0.V_CMFB_S3.t16 VDDA.t357 VDDA.t359 VDDA.t358 sky130_fd_pr__pfet_01v8 ad=0.2 pd=1.4 as=0.4 ps=2.8 w=1 l=0.15
X70 VOUT-.t29 two_stage_opamp_dummy_magic_14_0.cap_res_X.t128 sky130_fd_pr__cap_mim_m3_1 l=2 w=2
X71 VOUT-.t2 two_stage_opamp_dummy_magic_14_0.X.t27 VDDA.t41 VDDA.t40 sky130_fd_pr__pfet_01v8 ad=1.2 pd=6.4 as=1.2 ps=6.4 w=6 l=0.15
X72 two_stage_opamp_dummy_magic_14_0.VD1.t19 two_stage_opamp_dummy_magic_14_0.Vb1.t8 two_stage_opamp_dummy_magic_14_0.X.t6 GNDA.t17 sky130_fd_pr__nfet_01v8 ad=0.3 pd=1.9 as=0.3 ps=1.9 w=1.5 l=0.15
X73 VOUT+.t0 a_5980_2720.t0 GNDA.t16 sky130_fd_pr__res_xhigh_po_0p35 l=2.63
X74 two_stage_opamp_dummy_magic_14_0.V_CMFB_S3.t14 bgr_0.PFET_GATE_10uA.t12 VDDA.t9 VDDA.t8 sky130_fd_pr__pfet_01v8 ad=0.2 pd=1.4 as=0.2 ps=1.4 w=1 l=0.15
X75 two_stage_opamp_dummy_magic_14_0.Vb2_Vb3.t10 VDDA.t354 VDDA.t356 VDDA.t355 sky130_fd_pr__pfet_01v8 ad=0.7 pd=3.9 as=1.4 ps=7.8 w=3.5 l=0.2
X76 VDDA.t14 bgr_0.PFET_GATE_10uA.t13 two_stage_opamp_dummy_magic_14_0.V_CMFB_S3.t13 VDDA.t13 sky130_fd_pr__pfet_01v8 ad=0.2 pd=1.4 as=0.2 ps=1.4 w=1 l=0.15
X77 VOUT+.t31 two_stage_opamp_dummy_magic_14_0.cap_res_Y.t126 sky130_fd_pr__cap_mim_m3_1 l=2 w=2
X78 bgr_0.V_TOP.t20 VDDA.t104 sky130_fd_pr__cap_mim_m3_1 l=2 w=2
X79 bgr_0.1st_Vout_2.t7 bgr_0.V_CUR_REF_REG.t4 bgr_0.V_p_2.t8 GNDA.t159 sky130_fd_pr__nfet_01v8 ad=0.1 pd=0.9 as=0.1 ps=0.9 w=0.5 l=0.2
X80 two_stage_opamp_dummy_magic_14_0.VD4.t19 two_stage_opamp_dummy_magic_14_0.Vb2.t12 two_stage_opamp_dummy_magic_14_0.Y.t7 two_stage_opamp_dummy_magic_14_0.VD4.t18 sky130_fd_pr__pfet_01v8 ad=0.7 pd=3.9 as=0.7 ps=3.9 w=3.5 l=0.2
X81 VOUT+.t2 two_stage_opamp_dummy_magic_14_0.V_b_2nd_stage.t3 GNDA.t19 GNDA.t18 sky130_fd_pr__nfet_01v8 ad=1.4 pd=7.4 as=1.4 ps=7.4 w=7 l=0.6
X82 VDDA.t120 two_stage_opamp_dummy_magic_14_0.Y.t27 VOUT+.t10 VDDA.t119 sky130_fd_pr__pfet_01v8 ad=1.2 pd=6.4 as=1.2 ps=6.4 w=6 l=0.15
X83 two_stage_opamp_dummy_magic_14_0.VD2.t10 two_stage_opamp_dummy_magic_14_0.Vb1.t9 two_stage_opamp_dummy_magic_14_0.Y.t18 GNDA.t0 sky130_fd_pr__nfet_01v8 ad=0.3 pd=1.9 as=0.3 ps=1.9 w=1.5 l=0.15
X84 VOUT-.t30 two_stage_opamp_dummy_magic_14_0.cap_res_X.t127 sky130_fd_pr__cap_mim_m3_1 l=2 w=2
X85 two_stage_opamp_dummy_magic_14_0.VD4.t35 two_stage_opamp_dummy_magic_14_0.Vb3.t10 VDDA.t257 VDDA.t256 sky130_fd_pr__pfet_01v8 ad=0.7 pd=3.9 as=0.7 ps=3.9 w=3.5 l=0.2
X86 VOUT-.t31 two_stage_opamp_dummy_magic_14_0.cap_res_X.t126 sky130_fd_pr__cap_mim_m3_1 l=2 w=2
X87 VOUT-.t32 two_stage_opamp_dummy_magic_14_0.cap_res_X.t125 sky130_fd_pr__cap_mim_m3_1 l=2 w=2
X88 VOUT-.t3 a_14010_2720.t0 GNDA.t38 sky130_fd_pr__res_xhigh_po_0p35 l=2.63
X89 bgr_0.PFET_GATE_10uA.t5 bgr_0.1st_Vout_2.t13 VDDA.t405 VDDA.t404 sky130_fd_pr__pfet_01v8 ad=0.2 pd=1.4 as=0.2 ps=1.4 w=1 l=0.2
X90 VOUT-.t33 two_stage_opamp_dummy_magic_14_0.cap_res_X.t124 sky130_fd_pr__cap_mim_m3_1 l=2 w=2
X91 bgr_0.V_TOP.t21 VDDA.t121 sky130_fd_pr__cap_mim_m3_1 l=2 w=2
X92 two_stage_opamp_dummy_magic_14_0.V_CMFB_S1.t9 two_stage_opamp_dummy_magic_14_0.X.t28 GNDA.t8 VDDA.t10 sky130_fd_pr__pfet_01v8 ad=0.4 pd=2.4 as=0.4 ps=2.4 w=2 l=0.15
X93 GNDA.t287 GNDA.t285 two_stage_opamp_dummy_magic_14_0.V_source.t30 GNDA.t286 sky130_fd_pr__nfet_01v8 ad=1 pd=5.8 as=0.5 ps=2.9 w=2.5 l=0.15
X94 bgr_0.START_UP_NFET1.t0 bgr_0.START_UP_NFET1 GNDA.t128 GNDA.t127 sky130_fd_pr__nfet_01v8 ad=0.2 pd=1.4 as=0.4 ps=2.8 w=1 l=10
X95 VDDA.t353 VDDA.t351 GNDA.t84 VDDA.t352 sky130_fd_pr__pfet_01v8 ad=0.8 pd=4.8 as=0.4 ps=2.4 w=2 l=0.15
X96 two_stage_opamp_dummy_magic_14_0.Vb2_Vb3.t8 two_stage_opamp_dummy_magic_14_0.Vb2_Vb3.t6 two_stage_opamp_dummy_magic_14_0.Vb3.t1 two_stage_opamp_dummy_magic_14_0.Vb2_Vb3.t7 sky130_fd_pr__pfet_01v8 ad=1.4 pd=7.8 as=0.7 ps=3.9 w=3.5 l=0.2
X97 two_stage_opamp_dummy_magic_14_0.VD3.t17 two_stage_opamp_dummy_magic_14_0.Vb2.t13 two_stage_opamp_dummy_magic_14_0.X.t14 two_stage_opamp_dummy_magic_14_0.VD3.t16 sky130_fd_pr__pfet_01v8 ad=0.7 pd=3.9 as=0.7 ps=3.9 w=3.5 l=0.2
X98 VOUT+.t32 two_stage_opamp_dummy_magic_14_0.cap_res_Y.t125 sky130_fd_pr__cap_mim_m3_1 l=2 w=2
X99 GNDA.t37 two_stage_opamp_dummy_magic_14_0.err_amp_mir.t0 two_stage_opamp_dummy_magic_14_0.err_amp_mir.t1 GNDA.t36 sky130_fd_pr__nfet_01v8 ad=0.5 pd=2.9 as=0.5 ps=2.9 w=2.5 l=0.15
X100 two_stage_opamp_dummy_magic_14_0.V_source.t34 VIN+.t1 two_stage_opamp_dummy_magic_14_0.VD2.t18 GNDA.t160 sky130_fd_pr__nfet_01v8 ad=0.3 pd=1.9 as=0.3 ps=1.9 w=1.5 l=0.15
X101 two_stage_opamp_dummy_magic_14_0.V_CMFB_S4.t8 two_stage_opamp_dummy_magic_14_0.Y.t28 VDDA.t71 GNDA.t54 sky130_fd_pr__nfet_01v8 ad=0.6 pd=3.4 as=0.6 ps=3.4 w=3 l=0.15
X102 two_stage_opamp_dummy_magic_14_0.V_source.t10 VIN+.t2 two_stage_opamp_dummy_magic_14_0.VD2.t1 GNDA.t131 sky130_fd_pr__nfet_01v8 ad=0.3 pd=1.9 as=0.3 ps=1.9 w=1.5 l=0.15
X103 two_stage_opamp_dummy_magic_14_0.V_tail_gate.t10 GNDA.t282 GNDA.t284 GNDA.t283 sky130_fd_pr__nfet_01v8 ad=0.3 pd=1.9 as=0.6 ps=3.8 w=1.5 l=0.15
X104 VOUT+.t33 two_stage_opamp_dummy_magic_14_0.cap_res_Y.t124 sky130_fd_pr__cap_mim_m3_1 l=2 w=2
X105 bgr_0.V_TOP.t22 VDDA.t122 sky130_fd_pr__cap_mim_m3_1 l=2 w=2
X106 GNDA.t197 bgr_0.NFET_GATE_10uA.t7 two_stage_opamp_dummy_magic_14_0.V_CMFB_S2.t12 GNDA.t196 sky130_fd_pr__nfet_01v8 ad=0.2 pd=1.4 as=0.2 ps=1.4 w=1 l=0.15
X107 two_stage_opamp_dummy_magic_14_0.V_CMFB_S2.t11 bgr_0.NFET_GATE_10uA.t8 GNDA.t195 GNDA.t194 sky130_fd_pr__nfet_01v8 ad=0.2 pd=1.4 as=0.2 ps=1.4 w=1 l=0.15
X108 two_stage_opamp_dummy_magic_14_0.VD4.t17 two_stage_opamp_dummy_magic_14_0.Vb2.t14 two_stage_opamp_dummy_magic_14_0.Y.t5 two_stage_opamp_dummy_magic_14_0.VD4.t16 sky130_fd_pr__pfet_01v8 ad=0.7 pd=3.9 as=0.7 ps=3.9 w=3.5 l=0.2
X109 GNDA.t53 two_stage_opamp_dummy_magic_14_0.Y.t29 two_stage_opamp_dummy_magic_14_0.V_CMFB_S3.t8 VDDA.t70 sky130_fd_pr__pfet_01v8 ad=0.4 pd=2.4 as=0.4 ps=2.4 w=2 l=0.15
X110 VOUT-.t34 two_stage_opamp_dummy_magic_14_0.cap_res_X.t123 sky130_fd_pr__cap_mim_m3_1 l=2 w=2
X111 VOUT-.t35 two_stage_opamp_dummy_magic_14_0.cap_res_X.t122 sky130_fd_pr__cap_mim_m3_1 l=2 w=2
X112 VOUT-.t36 two_stage_opamp_dummy_magic_14_0.cap_res_X.t121 sky130_fd_pr__cap_mim_m3_1 l=2 w=2
X113 VOUT-.t37 two_stage_opamp_dummy_magic_14_0.cap_res_X.t120 sky130_fd_pr__cap_mim_m3_1 l=2 w=2
X114 bgr_0.1st_Vout_2.t14 bgr_0.cap_res2.t17 sky130_fd_pr__cap_mim_m3_1 l=2 w=2
X115 VOUT+.t34 two_stage_opamp_dummy_magic_14_0.cap_res_Y.t123 sky130_fd_pr__cap_mim_m3_1 l=2 w=2
X116 VOUT+.t35 two_stage_opamp_dummy_magic_14_0.cap_res_Y.t122 sky130_fd_pr__cap_mim_m3_1 l=2 w=2
X117 VOUT+.t36 two_stage_opamp_dummy_magic_14_0.cap_res_Y.t121 sky130_fd_pr__cap_mim_m3_1 l=2 w=2
X118 VOUT+.t37 two_stage_opamp_dummy_magic_14_0.cap_res_Y.t120 sky130_fd_pr__cap_mim_m3_1 l=2 w=2
X119 VOUT+.t38 two_stage_opamp_dummy_magic_14_0.cap_res_Y.t119 sky130_fd_pr__cap_mim_m3_1 l=2 w=2
X120 a_12530_23988.t1 bgr_0.Vin-.t6 GNDA.t126 sky130_fd_pr__res_xhigh_po_0p35 l=6
X121 two_stage_opamp_dummy_magic_14_0.VD3.t27 two_stage_opamp_dummy_magic_14_0.Vb3.t11 VDDA.t255 VDDA.t254 sky130_fd_pr__pfet_01v8 ad=0.7 pd=3.9 as=0.7 ps=3.9 w=3.5 l=0.2
X122 two_stage_opamp_dummy_magic_14_0.VD3.t5 two_stage_opamp_dummy_magic_14_0.Vb2.t15 two_stage_opamp_dummy_magic_14_0.X.t3 two_stage_opamp_dummy_magic_14_0.VD3.t4 sky130_fd_pr__pfet_01v8 ad=0.7 pd=3.9 as=0.7 ps=3.9 w=3.5 l=0.2
X123 VOUT-.t38 two_stage_opamp_dummy_magic_14_0.cap_res_X.t119 sky130_fd_pr__cap_mim_m3_1 l=2 w=2
X124 VOUT-.t39 two_stage_opamp_dummy_magic_14_0.cap_res_X.t118 sky130_fd_pr__cap_mim_m3_1 l=2 w=2
X125 bgr_0.1st_Vout_2.t2 bgr_0.V_mir2.t18 VDDA.t45 VDDA.t44 sky130_fd_pr__pfet_01v8 ad=0.2 pd=1.4 as=0.2 ps=1.4 w=1 l=0.2
X126 two_stage_opamp_dummy_magic_14_0.V_err_p.t3 two_stage_opamp_dummy_magic_14_0.V_tot.t4 two_stage_opamp_dummy_magic_14_0.err_amp_mir.t4 VDDA.t376 sky130_fd_pr__pfet_01v8 ad=0.5 pd=2.9 as=0.5 ps=2.9 w=2.5 l=0.15
X127 VOUT-.t0 two_stage_opamp_dummy_magic_14_0.X.t29 VDDA.t12 VDDA.t11 sky130_fd_pr__pfet_01v8 ad=1.2 pd=6.4 as=1.2 ps=6.4 w=6 l=0.15
X128 two_stage_opamp_dummy_magic_14_0.VD1.t18 two_stage_opamp_dummy_magic_14_0.Vb1.t10 two_stage_opamp_dummy_magic_14_0.X.t1 GNDA.t6 sky130_fd_pr__nfet_01v8 ad=0.3 pd=1.9 as=0.3 ps=1.9 w=1.5 l=0.15
X129 VOUT-.t40 two_stage_opamp_dummy_magic_14_0.cap_res_X.t117 sky130_fd_pr__cap_mim_m3_1 l=2 w=2
X130 VOUT-.t41 two_stage_opamp_dummy_magic_14_0.cap_res_X.t116 sky130_fd_pr__cap_mim_m3_1 l=2 w=2
X131 bgr_0.1st_Vout_2.t15 bgr_0.cap_res2.t16 sky130_fd_pr__cap_mim_m3_1 l=2 w=2
X132 VOUT-.t42 two_stage_opamp_dummy_magic_14_0.cap_res_X.t115 sky130_fd_pr__cap_mim_m3_1 l=2 w=2
X133 VOUT+.t39 two_stage_opamp_dummy_magic_14_0.cap_res_Y.t118 sky130_fd_pr__cap_mim_m3_1 l=2 w=2
X134 two_stage_opamp_dummy_magic_14_0.V_p_mir.t3 two_stage_opamp_dummy_magic_14_0.V_tail_gate.t13 GNDA.t307 GNDA.t306 sky130_fd_pr__nfet_01v8 ad=0.5 pd=2.9 as=0.5 ps=2.9 w=2.5 l=0.15
X135 two_stage_opamp_dummy_magic_14_0.V_source.t28 two_stage_opamp_dummy_magic_14_0.V_tail_gate.t14 GNDA.t74 GNDA.t73 sky130_fd_pr__nfet_01v8 ad=0.5 pd=2.9 as=0.5 ps=2.9 w=2.5 l=0.15
X136 two_stage_opamp_dummy_magic_14_0.VD2.t9 two_stage_opamp_dummy_magic_14_0.Vb1.t11 two_stage_opamp_dummy_magic_14_0.Y.t17 GNDA.t130 sky130_fd_pr__nfet_01v8 ad=0.3 pd=1.9 as=0.3 ps=1.9 w=1.5 l=0.15
X137 VOUT-.t43 two_stage_opamp_dummy_magic_14_0.cap_res_X.t114 sky130_fd_pr__cap_mim_m3_1 l=2 w=2
X138 VOUT+.t40 two_stage_opamp_dummy_magic_14_0.cap_res_Y.t117 sky130_fd_pr__cap_mim_m3_1 l=2 w=2
X139 VOUT+.t41 two_stage_opamp_dummy_magic_14_0.cap_res_Y.t116 sky130_fd_pr__cap_mim_m3_1 l=2 w=2
X140 bgr_0.1st_Vout_1.t15 bgr_0.cap_res1.t16 sky130_fd_pr__cap_mim_m3_1 l=2 w=2
X141 VOUT+.t42 two_stage_opamp_dummy_magic_14_0.cap_res_Y.t115 sky130_fd_pr__cap_mim_m3_1 l=2 w=2
X142 bgr_0.V_mir1.t1 bgr_0.Vin-.t8 bgr_0.V_p_1.t4 GNDA.t69 sky130_fd_pr__nfet_01v8 ad=0.1 pd=0.9 as=0.1 ps=0.9 w=0.5 l=0.2
X143 bgr_0.V_mir1.t14 bgr_0.V_mir1.t13 VDDA.t43 VDDA.t42 sky130_fd_pr__pfet_01v8 ad=0.2 pd=1.4 as=0.2 ps=1.4 w=1 l=0.2
X144 two_stage_opamp_dummy_magic_14_0.VD3.t26 two_stage_opamp_dummy_magic_14_0.Vb3.t12 VDDA.t253 VDDA.t252 sky130_fd_pr__pfet_01v8 ad=0.7 pd=3.9 as=0.7 ps=3.9 w=3.5 l=0.2
X145 two_stage_opamp_dummy_magic_14_0.V_tail_gate.t1 VIN-.t1 two_stage_opamp_dummy_magic_14_0.V_p_mir.t1 GNDA.t35 sky130_fd_pr__nfet_01v8 ad=0.3 pd=1.9 as=0.3 ps=1.9 w=1.5 l=0.15
X146 two_stage_opamp_dummy_magic_14_0.V_source.t4 VIN-.t2 two_stage_opamp_dummy_magic_14_0.VD1.t8 GNDA.t17 sky130_fd_pr__nfet_01v8 ad=0.3 pd=1.9 as=0.3 ps=1.9 w=1.5 l=0.15
X147 GNDA.t97 a_7580_22380.t1 GNDA.t2 sky130_fd_pr__res_xhigh_po_0p35 l=6
X148 VOUT-.t44 two_stage_opamp_dummy_magic_14_0.cap_res_X.t113 sky130_fd_pr__cap_mim_m3_1 l=2 w=2
X149 VOUT-.t45 two_stage_opamp_dummy_magic_14_0.cap_res_X.t112 sky130_fd_pr__cap_mim_m3_1 l=2 w=2
X150 VOUT+.t43 two_stage_opamp_dummy_magic_14_0.cap_res_Y.t114 sky130_fd_pr__cap_mim_m3_1 l=2 w=2
X151 GNDA.t72 two_stage_opamp_dummy_magic_14_0.V_tail_gate.t15 two_stage_opamp_dummy_magic_14_0.V_source.t27 GNDA.t71 sky130_fd_pr__nfet_01v8 ad=0.5 pd=2.9 as=0.5 ps=2.9 w=2.5 l=0.15
X152 VOUT-.t46 two_stage_opamp_dummy_magic_14_0.cap_res_X.t111 sky130_fd_pr__cap_mim_m3_1 l=2 w=2
X153 VOUT-.t47 two_stage_opamp_dummy_magic_14_0.cap_res_X.t110 sky130_fd_pr__cap_mim_m3_1 l=2 w=2
X154 GNDA.t122 two_stage_opamp_dummy_magic_14_0.V_tail_gate.t16 two_stage_opamp_dummy_magic_14_0.V_source.t26 GNDA.t121 sky130_fd_pr__nfet_01v8 ad=0.5 pd=2.9 as=0.5 ps=2.9 w=2.5 l=0.15
X155 VDDA.t219 bgr_0.PFET_GATE_10uA.t14 two_stage_opamp_dummy_magic_14_0.Vb1.t3 VDDA.t218 sky130_fd_pr__pfet_01v8 ad=0.2 pd=1.4 as=0.2 ps=1.4 w=1 l=0.15
X156 two_stage_opamp_dummy_magic_14_0.V_CMFB_S1.t8 two_stage_opamp_dummy_magic_14_0.X.t30 GNDA.t61 VDDA.t76 sky130_fd_pr__pfet_01v8 ad=0.4 pd=2.4 as=0.4 ps=2.4 w=2 l=0.15
X157 VOUT-.t48 two_stage_opamp_dummy_magic_14_0.cap_res_X.t109 sky130_fd_pr__cap_mim_m3_1 l=2 w=2
X158 bgr_0.V_TOP.t23 VDDA.t123 sky130_fd_pr__cap_mim_m3_1 l=2 w=2
X159 two_stage_opamp_dummy_magic_14_0.V_source.t0 VIN+.t3 two_stage_opamp_dummy_magic_14_0.VD2.t0 GNDA.t0 sky130_fd_pr__nfet_01v8 ad=0.3 pd=1.9 as=0.3 ps=1.9 w=1.5 l=0.15
X160 VDDA.t350 VDDA.t348 two_stage_opamp_dummy_magic_14_0.V_CMFB_S1.t15 VDDA.t349 sky130_fd_pr__pfet_01v8 ad=0.4 pd=2.8 as=0.2 ps=1.4 w=1 l=0.15
X161 VOUT-.t49 two_stage_opamp_dummy_magic_14_0.cap_res_X.t108 sky130_fd_pr__cap_mim_m3_1 l=2 w=2
X162 VOUT-.t50 two_stage_opamp_dummy_magic_14_0.cap_res_X.t107 sky130_fd_pr__cap_mim_m3_1 l=2 w=2
X163 GNDA.t78 two_stage_opamp_dummy_magic_14_0.V_b_2nd_stage.t4 VOUT+.t11 GNDA.t77 sky130_fd_pr__nfet_01v8 ad=1.4 pd=7.4 as=1.4 ps=7.4 w=7 l=0.6
X164 two_stage_opamp_dummy_magic_14_0.V_CMFB_S1.t13 bgr_0.PFET_GATE_10uA.t15 VDDA.t215 VDDA.t214 sky130_fd_pr__pfet_01v8 ad=0.2 pd=1.4 as=0.2 ps=1.4 w=1 l=0.15
X165 a_5700_5524.t1 two_stage_opamp_dummy_magic_14_0.V_tot.t3 GNDA.t120 sky130_fd_pr__res_xhigh_po_0p35 l=1.75
X166 VOUT+.t44 two_stage_opamp_dummy_magic_14_0.cap_res_Y.t113 sky130_fd_pr__cap_mim_m3_1 l=2 w=2
X167 VOUT+.t45 two_stage_opamp_dummy_magic_14_0.cap_res_Y.t112 sky130_fd_pr__cap_mim_m3_1 l=2 w=2
X168 VDDA.t251 two_stage_opamp_dummy_magic_14_0.Vb3.t13 two_stage_opamp_dummy_magic_14_0.VD4.t34 VDDA.t250 sky130_fd_pr__pfet_01v8 ad=0.7 pd=3.9 as=0.7 ps=3.9 w=3.5 l=0.2
X169 VOUT+.t1 two_stage_opamp_dummy_magic_14_0.Y.t30 VDDA.t20 VDDA.t19 sky130_fd_pr__pfet_01v8 ad=1.2 pd=6.4 as=1.2 ps=6.4 w=6 l=0.15
X170 GNDA.t115 VDDA.t345 VDDA.t347 VDDA.t346 sky130_fd_pr__pfet_01v8 ad=0.4 pd=2.4 as=0.8 ps=4.8 w=2 l=0.15
X171 bgr_0.V_mir1.t15 bgr_0.Vin-.t9 bgr_0.V_p_1.t3 GNDA.t301 sky130_fd_pr__nfet_01v8 ad=0.1 pd=0.9 as=0.1 ps=0.9 w=0.5 l=0.2
X172 VOUT+.t46 two_stage_opamp_dummy_magic_14_0.cap_res_Y.t111 sky130_fd_pr__cap_mim_m3_1 l=2 w=2
X173 VOUT+.t47 two_stage_opamp_dummy_magic_14_0.cap_res_Y.t110 sky130_fd_pr__cap_mim_m3_1 l=2 w=2
X174 two_stage_opamp_dummy_magic_14_0.VD3.t15 two_stage_opamp_dummy_magic_14_0.Vb2.t16 two_stage_opamp_dummy_magic_14_0.X.t13 two_stage_opamp_dummy_magic_14_0.VD3.t14 sky130_fd_pr__pfet_01v8 ad=0.7 pd=3.9 as=0.7 ps=3.9 w=3.5 l=0.2
X175 bgr_0.START_UP.t2 bgr_0.V_TOP.t24 VDDA.t407 VDDA.t406 sky130_fd_pr__pfet_01v8 ad=0.6 pd=3.4 as=0.6 ps=3.4 w=3 l=0.5
X176 VOUT-.t51 two_stage_opamp_dummy_magic_14_0.cap_res_X.t106 sky130_fd_pr__cap_mim_m3_1 l=2 w=2
X177 bgr_0.PFET_GATE_10uA.t4 bgr_0.1st_Vout_2.t16 VDDA.t157 VDDA.t156 sky130_fd_pr__pfet_01v8 ad=0.2 pd=1.4 as=0.2 ps=1.4 w=1 l=0.2
X178 VDDA.t159 bgr_0.V_mir1.t18 bgr_0.1st_Vout_1.t4 VDDA.t158 sky130_fd_pr__pfet_01v8 ad=0.2 pd=1.4 as=0.2 ps=1.4 w=1 l=0.2
X179 VOUT+.t48 two_stage_opamp_dummy_magic_14_0.cap_res_Y.t109 sky130_fd_pr__cap_mim_m3_1 l=2 w=2
X180 VOUT+.t49 two_stage_opamp_dummy_magic_14_0.cap_res_Y.t108 sky130_fd_pr__cap_mim_m3_1 l=2 w=2
X181 VOUT-.t52 two_stage_opamp_dummy_magic_14_0.cap_res_X.t105 sky130_fd_pr__cap_mim_m3_1 l=2 w=2
X182 VOUT-.t53 two_stage_opamp_dummy_magic_14_0.cap_res_X.t104 sky130_fd_pr__cap_mim_m3_1 l=2 w=2
X183 two_stage_opamp_dummy_magic_14_0.Vb2.t8 bgr_0.NFET_GATE_10uA.t9 GNDA.t193 GNDA.t192 sky130_fd_pr__nfet_01v8 ad=0.2 pd=1.4 as=0.2 ps=1.4 w=1 l=0.15
X184 VDDA.t249 two_stage_opamp_dummy_magic_14_0.Vb3.t14 two_stage_opamp_dummy_magic_14_0.Vb2_Vb3.t9 VDDA.t248 sky130_fd_pr__pfet_01v8 ad=0.7 pd=3.9 as=0.7 ps=3.9 w=3.5 l=0.2
X185 GNDA.t191 bgr_0.NFET_GATE_10uA.t10 two_stage_opamp_dummy_magic_14_0.Vb2.t7 GNDA.t190 sky130_fd_pr__nfet_01v8 ad=0.2 pd=1.4 as=0.2 ps=1.4 w=1 l=0.15
X186 VOUT+.t50 two_stage_opamp_dummy_magic_14_0.cap_res_Y.t107 sky130_fd_pr__cap_mim_m3_1 l=2 w=2
X187 bgr_0.V_TOP.t25 VDDA.t408 sky130_fd_pr__cap_mim_m3_1 l=2 w=2
X188 GNDA.t189 bgr_0.NFET_GATE_10uA.t11 two_stage_opamp_dummy_magic_14_0.Vb2.t6 GNDA.t188 sky130_fd_pr__nfet_01v8 ad=0.2 pd=1.4 as=0.2 ps=1.4 w=1 l=0.15
X189 two_stage_opamp_dummy_magic_14_0.Y.t11 two_stage_opamp_dummy_magic_14_0.Vb2.t17 two_stage_opamp_dummy_magic_14_0.VD4.t15 two_stage_opamp_dummy_magic_14_0.VD4.t14 sky130_fd_pr__pfet_01v8 ad=0.7 pd=3.9 as=0.7 ps=3.9 w=3.5 l=0.2
X190 VOUT+.t51 two_stage_opamp_dummy_magic_14_0.cap_res_Y.t106 sky130_fd_pr__cap_mim_m3_1 l=2 w=2
X191 VOUT-.t54 two_stage_opamp_dummy_magic_14_0.cap_res_X.t103 sky130_fd_pr__cap_mim_m3_1 l=2 w=2
X192 VOUT-.t8 two_stage_opamp_dummy_magic_14_0.X.t31 VDDA.t78 VDDA.t77 sky130_fd_pr__pfet_01v8 ad=1.2 pd=6.4 as=1.2 ps=6.4 w=6 l=0.15
X193 two_stage_opamp_dummy_magic_14_0.VD1.t17 two_stage_opamp_dummy_magic_14_0.Vb1.t12 two_stage_opamp_dummy_magic_14_0.X.t17 GNDA.t7 sky130_fd_pr__nfet_01v8 ad=0.3 pd=1.9 as=0.3 ps=1.9 w=1.5 l=0.15
X194 two_stage_opamp_dummy_magic_14_0.V_CMFB_S3.t7 two_stage_opamp_dummy_magic_14_0.Y.t31 GNDA.t297 VDDA.t385 sky130_fd_pr__pfet_01v8 ad=0.4 pd=2.4 as=0.4 ps=2.4 w=2 l=0.15
X195 VDDA.t247 two_stage_opamp_dummy_magic_14_0.Vb3.t15 two_stage_opamp_dummy_magic_14_0.VD4.t33 VDDA.t246 sky130_fd_pr__pfet_01v8 ad=0.7 pd=3.9 as=0.7 ps=3.9 w=3.5 l=0.2
X196 VOUT+.t52 two_stage_opamp_dummy_magic_14_0.cap_res_Y.t105 sky130_fd_pr__cap_mim_m3_1 l=2 w=2
X197 VOUT+.t53 two_stage_opamp_dummy_magic_14_0.cap_res_Y.t104 sky130_fd_pr__cap_mim_m3_1 l=2 w=2
X198 VOUT+.t54 two_stage_opamp_dummy_magic_14_0.cap_res_Y.t103 sky130_fd_pr__cap_mim_m3_1 l=2 w=2
X199 VOUT+.t55 two_stage_opamp_dummy_magic_14_0.cap_res_Y.t102 sky130_fd_pr__cap_mim_m3_1 l=2 w=2
X200 two_stage_opamp_dummy_magic_14_0.VD3.t25 two_stage_opamp_dummy_magic_14_0.Vb3.t16 VDDA.t245 VDDA.t244 sky130_fd_pr__pfet_01v8 ad=0.7 pd=3.9 as=0.7 ps=3.9 w=3.5 l=0.2
X201 VDDA.t410 bgr_0.V_TOP.t26 bgr_0.Vin+.t2 VDDA.t409 sky130_fd_pr__pfet_01v8 ad=0.6 pd=3.4 as=0.6 ps=3.4 w=3 l=0.5
X202 two_stage_opamp_dummy_magic_14_0.V_source.t25 two_stage_opamp_dummy_magic_14_0.V_tail_gate.t17 GNDA.t303 GNDA.t302 sky130_fd_pr__nfet_01v8 ad=0.5 pd=2.9 as=0.5 ps=2.9 w=2.5 l=0.15
X203 bgr_0.1st_Vout_2.t1 bgr_0.V_mir2.t19 VDDA.t37 VDDA.t36 sky130_fd_pr__pfet_01v8 ad=0.2 pd=1.4 as=0.2 ps=1.4 w=1 l=0.2
X204 VOUT-.t55 two_stage_opamp_dummy_magic_14_0.cap_res_X.t102 sky130_fd_pr__cap_mim_m3_1 l=2 w=2
X205 two_stage_opamp_dummy_magic_14_0.V_b_2nd_stage.t1 a_14010_2720.t1 GNDA.t119 sky130_fd_pr__res_xhigh_po_0p35 l=2.63
X206 bgr_0.V_TOP.t3 bgr_0.1st_Vout_1.t16 VDDA.t155 VDDA.t154 sky130_fd_pr__pfet_01v8 ad=0.2 pd=1.4 as=0.2 ps=1.4 w=1 l=0.2
X207 bgr_0.V_CUR_REF_REG.t2 VDDA.t342 VDDA.t344 VDDA.t343 sky130_fd_pr__pfet_01v8 ad=0.2 pd=1.4 as=0.4 ps=2.8 w=1 l=0.15
X208 VOUT-.t56 two_stage_opamp_dummy_magic_14_0.cap_res_X.t101 sky130_fd_pr__cap_mim_m3_1 l=2 w=2
X209 VOUT-.t57 two_stage_opamp_dummy_magic_14_0.cap_res_X.t100 sky130_fd_pr__cap_mim_m3_1 l=2 w=2
X210 VOUT-.t58 two_stage_opamp_dummy_magic_14_0.cap_res_X.t99 sky130_fd_pr__cap_mim_m3_1 l=2 w=2
X211 VOUT+.t56 two_stage_opamp_dummy_magic_14_0.cap_res_Y.t101 sky130_fd_pr__cap_mim_m3_1 l=2 w=2
X212 two_stage_opamp_dummy_magic_14_0.V_tail_gate.t6 bgr_0.PFET_GATE_10uA.t16 VDDA.t165 VDDA.t164 sky130_fd_pr__pfet_01v8 ad=0.2 pd=1.4 as=0.2 ps=1.4 w=1 l=0.15
X213 VOUT-.t59 two_stage_opamp_dummy_magic_14_0.cap_res_X.t98 sky130_fd_pr__cap_mim_m3_1 l=2 w=2
X214 two_stage_opamp_dummy_magic_14_0.V_source.t8 VIN-.t3 two_stage_opamp_dummy_magic_14_0.VD1.t7 GNDA.t6 sky130_fd_pr__nfet_01v8 ad=0.3 pd=1.9 as=0.3 ps=1.9 w=1.5 l=0.15
X215 VDDA.t149 two_stage_opamp_dummy_magic_14_0.X.t32 two_stage_opamp_dummy_magic_14_0.V_CMFB_S2.t7 GNDA.t101 sky130_fd_pr__nfet_01v8 ad=0.6 pd=3.4 as=0.6 ps=3.4 w=3 l=0.15
X216 two_stage_opamp_dummy_magic_14_0.X.t24 two_stage_opamp_dummy_magic_14_0.Vb2.t18 two_stage_opamp_dummy_magic_14_0.VD3.t37 two_stage_opamp_dummy_magic_14_0.VD3.t36 sky130_fd_pr__pfet_01v8 ad=0.7 pd=3.9 as=0.7 ps=3.9 w=3.5 l=0.2
X217 VOUT+.t57 two_stage_opamp_dummy_magic_14_0.cap_res_Y.t100 sky130_fd_pr__cap_mim_m3_1 l=2 w=2
X218 GNDA.t316 two_stage_opamp_dummy_magic_14_0.V_tail_gate.t18 two_stage_opamp_dummy_magic_14_0.V_source.t24 GNDA.t315 sky130_fd_pr__nfet_01v8 ad=0.5 pd=2.9 as=0.5 ps=2.9 w=2.5 l=0.15
X219 VOUT+.t58 two_stage_opamp_dummy_magic_14_0.cap_res_Y.t99 sky130_fd_pr__cap_mim_m3_1 l=2 w=2
X220 bgr_0.1st_Vout_2.t17 bgr_0.cap_res2.t15 sky130_fd_pr__cap_mim_m3_1 l=2 w=2
X221 two_stage_opamp_dummy_magic_14_0.V_CMFB_S1.t7 two_stage_opamp_dummy_magic_14_0.X.t33 GNDA.t102 VDDA.t150 sky130_fd_pr__pfet_01v8 ad=0.4 pd=2.4 as=0.4 ps=2.4 w=2 l=0.15
X222 two_stage_opamp_dummy_magic_14_0.Y.t9 two_stage_opamp_dummy_magic_14_0.Vb2.t19 two_stage_opamp_dummy_magic_14_0.VD4.t13 two_stage_opamp_dummy_magic_14_0.VD4.t12 sky130_fd_pr__pfet_01v8 ad=0.7 pd=3.9 as=0.7 ps=3.9 w=3.5 l=0.2
X223 two_stage_opamp_dummy_magic_14_0.V_CMFB_S4.t7 two_stage_opamp_dummy_magic_14_0.Y.t32 VDDA.t387 GNDA.t299 sky130_fd_pr__nfet_01v8 ad=0.6 pd=3.4 as=0.6 ps=3.4 w=3 l=0.15
X224 bgr_0.Vin+.t5 bgr_0.sky130_fd_pr__rf_pnp_05v5_W3p40L3p40_25.Emitter.t0 GNDA.t50 sky130_fd_pr__res_xhigh_po_0p35 l=2.3
X225 two_stage_opamp_dummy_magic_14_0.V_source.t32 VIN+.t4 two_stage_opamp_dummy_magic_14_0.VD2.t16 GNDA.t130 sky130_fd_pr__nfet_01v8 ad=0.3 pd=1.9 as=0.3 ps=1.9 w=1.5 l=0.15
X226 VOUT+.t59 two_stage_opamp_dummy_magic_14_0.cap_res_Y.t98 sky130_fd_pr__cap_mim_m3_1 l=2 w=2
X227 VOUT+.t60 two_stage_opamp_dummy_magic_14_0.cap_res_Y.t97 sky130_fd_pr__cap_mim_m3_1 l=2 w=2
X228 VOUT-.t60 two_stage_opamp_dummy_magic_14_0.cap_res_X.t97 sky130_fd_pr__cap_mim_m3_1 l=2 w=2
X229 VOUT-.t61 two_stage_opamp_dummy_magic_14_0.cap_res_X.t96 sky130_fd_pr__cap_mim_m3_1 l=2 w=2
X230 bgr_0.1st_Vout_2.t18 bgr_0.cap_res2.t14 sky130_fd_pr__cap_mim_m3_1 l=2 w=2
X231 bgr_0.Vin+.t1 bgr_0.V_TOP.t27 VDDA.t106 VDDA.t105 sky130_fd_pr__pfet_01v8 ad=0.6 pd=3.4 as=0.6 ps=3.4 w=3 l=0.5