* NGSPICE file created from bgr_opamp_dummy_magic_16.ext - technology: sky130A

.subckt sky130_fd_pr__rf_pnp_05v5_W3p40L3p40 Emitter Collector Base m=1
X0 Collector Base Emitter sky130_fd_pr__pnp_05v5_W3p40L3p40
**devattr s=462400,2720
.ends

.subckt bgr_11 ERR_AMP_REF V_CMFB_S3 VB1_CUR_BIAS TAIL_CUR_MIR_BIAS V_CMFB_S1 ERR_AMP_CUR_BIAS
+ VB3_CUR_BIAS V_CMFB_S4 V_CMFB_S2 VB2_CUR_BIAS a_34140_n1650# a_32560_n7778# a_37640_n2290#
+ w_32750_1090# a_33140_n1680# m1_35910_n8890# sky130_fd_pr__rf_pnp_05v5_W3p40L3p40_8/Base
+ w_32720_n90# w_33500_2220# a_35550_n8610#
Xsky130_fd_pr__rf_pnp_05v5_W3p40L3p40_8 sky130_fd_pr__rf_pnp_05v5_W3p40L3p40_8/Emitter
+ sky130_fd_pr__rf_pnp_05v5_W3p40L3p40_8/Base sky130_fd_pr__rf_pnp_05v5_W3p40L3p40_8/Base
+ sky130_fd_pr__rf_pnp_05v5_W3p40L3p40
+ m=1
Xsky130_fd_pr__rf_pnp_05v5_W3p40L3p40_20 sky130_fd_pr__rf_pnp_05v5_W3p40L3p40_8/Emitter
+ sky130_fd_pr__rf_pnp_05v5_W3p40L3p40_8/Base sky130_fd_pr__rf_pnp_05v5_W3p40L3p40_8/Base
+ sky130_fd_pr__rf_pnp_05v5_W3p40L3p40
+ m=1
Xsky130_fd_pr__rf_pnp_05v5_W3p40L3p40_21 sky130_fd_pr__rf_pnp_05v5_W3p40L3p40_8/Emitter
+ sky130_fd_pr__rf_pnp_05v5_W3p40L3p40_8/Base sky130_fd_pr__rf_pnp_05v5_W3p40L3p40_8/Base
+ sky130_fd_pr__rf_pnp_05v5_W3p40L3p40
+ m=1
Xsky130_fd_pr__rf_pnp_05v5_W3p40L3p40_22 sky130_fd_pr__rf_pnp_05v5_W3p40L3p40_8/Emitter
+ sky130_fd_pr__rf_pnp_05v5_W3p40L3p40_8/Base sky130_fd_pr__rf_pnp_05v5_W3p40L3p40_8/Base
+ sky130_fd_pr__rf_pnp_05v5_W3p40L3p40
+ m=1
Xsky130_fd_pr__rf_pnp_05v5_W3p40L3p40_23 Vin- sky130_fd_pr__rf_pnp_05v5_W3p40L3p40_8/Base
+ sky130_fd_pr__rf_pnp_05v5_W3p40L3p40_8/Base sky130_fd_pr__rf_pnp_05v5_W3p40L3p40 m=1
Xsky130_fd_pr__rf_pnp_05v5_W3p40L3p40_24 sky130_fd_pr__rf_pnp_05v5_W3p40L3p40_8/Emitter
+ sky130_fd_pr__rf_pnp_05v5_W3p40L3p40_8/Base sky130_fd_pr__rf_pnp_05v5_W3p40L3p40_8/Base
+ sky130_fd_pr__rf_pnp_05v5_W3p40L3p40
+ m=1
Xsky130_fd_pr__rf_pnp_05v5_W3p40L3p40_25 sky130_fd_pr__rf_pnp_05v5_W3p40L3p40_8/Emitter
+ sky130_fd_pr__rf_pnp_05v5_W3p40L3p40_8/Base sky130_fd_pr__rf_pnp_05v5_W3p40L3p40_8/Base
+ sky130_fd_pr__rf_pnp_05v5_W3p40L3p40
+ m=1
Xsky130_fd_pr__rf_pnp_05v5_W3p40L3p40_18 sky130_fd_pr__rf_pnp_05v5_W3p40L3p40_8/Emitter
+ sky130_fd_pr__rf_pnp_05v5_W3p40L3p40_8/Base sky130_fd_pr__rf_pnp_05v5_W3p40L3p40_8/Base
+ sky130_fd_pr__rf_pnp_05v5_W3p40L3p40
+ m=1
Xsky130_fd_pr__rf_pnp_05v5_W3p40L3p40_19 sky130_fd_pr__rf_pnp_05v5_W3p40L3p40_8/Emitter
+ sky130_fd_pr__rf_pnp_05v5_W3p40L3p40_8/Base sky130_fd_pr__rf_pnp_05v5_W3p40L3p40_8/Base
+ sky130_fd_pr__rf_pnp_05v5_W3p40L3p40
+ m=1
X0 1st_Vout_2 cap_res2 sky130_fd_pr__cap_mim_m3_1 l=2 w=2
X1 sky130_fd_pr__rf_pnp_05v5_W3p40L3p40_8/Base NFET_GATE_10uA V_CMFB_S2 sky130_fd_pr__rf_pnp_05v5_W3p40L3p40_8/Base sky130_fd_pr__nfet_01v8 ad=0.2 pd=1.4 as=0.2 ps=1.4 w=1 l=0.15
X2 V_mir2 V_mir2 w_32720_n90# w_32720_n90# sky130_fd_pr__pfet_01v8 ad=0.2 pd=1.4 as=0.2 ps=1.4 w=1 l=0.2
X3 VB2_CUR_BIAS NFET_GATE_10uA sky130_fd_pr__rf_pnp_05v5_W3p40L3p40_8/Base sky130_fd_pr__rf_pnp_05v5_W3p40L3p40_8/Base sky130_fd_pr__nfet_01v8 ad=0.2 pd=1.4 as=0.2 ps=1.4 w=1 l=0.15
X4 a_38570_n6504# a_38690_n7778# sky130_fd_pr__rf_pnp_05v5_W3p40L3p40_8/Base sky130_fd_pr__res_xhigh_po_0p35 l=4.33
X5 sky130_fd_pr__rf_pnp_05v5_W3p40L3p40_8/Base sky130_fd_pr__rf_pnp_05v5_W3p40L3p40_8/Base V_CMFB_S2 sky130_fd_pr__rf_pnp_05v5_W3p40L3p40_8/Base sky130_fd_pr__nfet_01v8 ad=0.4 pd=2.8 as=0.2 ps=1.4 w=1 l=0.15
X6 1st_Vout_1 cap_res1 sky130_fd_pr__cap_mim_m3_1 l=2 w=2
X7 sky130_fd_pr__rf_pnp_05v5_W3p40L3p40_8/Base NFET_GATE_10uA V_CMFB_S4 sky130_fd_pr__rf_pnp_05v5_W3p40L3p40_8/Base sky130_fd_pr__nfet_01v8 ad=0.2 pd=1.4 as=0.2 ps=1.4 w=1 l=0.15
X8 V_p_1 Vin+ 1st_Vout_1 sky130_fd_pr__rf_pnp_05v5_W3p40L3p40_8/Base sky130_fd_pr__nfet_01v8 ad=0.1 pd=0.9 as=0.1 ps=0.9 w=0.5 l=0.2
X9 VB2_CUR_BIAS NFET_GATE_10uA sky130_fd_pr__rf_pnp_05v5_W3p40L3p40_8/Base sky130_fd_pr__rf_pnp_05v5_W3p40L3p40_8/Base sky130_fd_pr__nfet_01v8 ad=0.2 pd=1.4 as=0.2 ps=1.4 w=1 l=0.15
X10 V_p_2 ERR_AMP_REF V_mir2 sky130_fd_pr__rf_pnp_05v5_W3p40L3p40_8/Base sky130_fd_pr__nfet_01v8 ad=0.1 pd=0.9 as=0.1 ps=0.9 w=0.5 l=0.2
X11 1st_Vout_1 cap_res1 sky130_fd_pr__cap_mim_m3_1 l=2 w=2
X12 sky130_fd_pr__rf_pnp_05v5_W3p40L3p40_8/Base START_UP_NFET1 START_UP_NFET1 sky130_fd_pr__rf_pnp_05v5_W3p40L3p40_8/Base sky130_fd_pr__nfet_01v8 ad=0.4 pd=2.8 as=0.2 ps=1.4 w=1 l=10
X13 w_33500_2220# w_33500_2220# V_CMFB_S1 w_33500_2220# sky130_fd_pr__pfet_01v8 ad=0.4 pd=2.8 as=0.2 ps=1.4 w=1 l=0.15
X14 V_TOP START_UP Vin- w_32750_1090# sky130_fd_pr__pfet_01v8 ad=0.2 pd=1.4 as=0.2 ps=1.4 w=1 l=0.15
X15 V_CMFB_S3 w_33500_2220# w_33500_2220# w_33500_2220# sky130_fd_pr__pfet_01v8 ad=0.2 pd=1.4 as=0.4 ps=2.8 w=1 l=0.15
X16 sky130_fd_pr__rf_pnp_05v5_W3p40L3p40_8/Base NFET_GATE_10uA VB3_CUR_BIAS sky130_fd_pr__rf_pnp_05v5_W3p40L3p40_8/Base sky130_fd_pr__nfet_01v8 ad=0.2 pd=1.4 as=0.2 ps=1.4 w=1 l=0.15
X17 VB3_CUR_BIAS NFET_GATE_10uA sky130_fd_pr__rf_pnp_05v5_W3p40L3p40_8/Base sky130_fd_pr__rf_pnp_05v5_W3p40L3p40_8/Base sky130_fd_pr__nfet_01v8 ad=0.2 pd=1.4 as=0.2 ps=1.4 w=1 l=0.15
X18 NFET_GATE_10uA sky130_fd_pr__rf_pnp_05v5_W3p40L3p40_8/Base sky130_fd_pr__rf_pnp_05v5_W3p40L3p40_8/Base sky130_fd_pr__rf_pnp_05v5_W3p40L3p40_8/Base sky130_fd_pr__nfet_01v8 ad=0.2 pd=1.4 as=0.4 ps=2.8 w=1 l=0.15
X19 1st_Vout_1 cap_res1 sky130_fd_pr__cap_mim_m3_1 l=2 w=2
X20 sky130_fd_pr__rf_pnp_05v5_W3p40L3p40_8/Base NFET_GATE_10uA NFET_GATE_10uA sky130_fd_pr__rf_pnp_05v5_W3p40L3p40_8/Base sky130_fd_pr__nfet_01v8 ad=0.2 pd=1.4 as=0.2 ps=1.4 w=1 l=0.15
X21 1st_Vout_2 V_mir2 w_32720_n90# w_32720_n90# sky130_fd_pr__pfet_01v8 ad=0.2 pd=1.4 as=0.2 ps=1.4 w=1 l=0.2
X22 V_p_1 Vin- V_mir1 sky130_fd_pr__rf_pnp_05v5_W3p40L3p40_8/Base sky130_fd_pr__nfet_01v8 ad=0.1 pd=0.9 as=0.1 ps=0.9 w=0.5 l=0.2
X23 V_p_2 a_33140_n1680# sky130_fd_pr__rf_pnp_05v5_W3p40L3p40_8/Base sky130_fd_pr__rf_pnp_05v5_W3p40L3p40_8/Base sky130_fd_pr__nfet_01v8 ad=1 pd=5.8 as=1 ps=5.8 w=2.5 l=5
X24 1st_Vout_2 cap_res2 sky130_fd_pr__cap_mim_m3_1 l=2 w=2
X25 V_CUR_REF_REG a_32320_n7778# sky130_fd_pr__rf_pnp_05v5_W3p40L3p40_8/Base sky130_fd_pr__res_xhigh_po_0p35 l=4
X26 VB2_CUR_BIAS sky130_fd_pr__rf_pnp_05v5_W3p40L3p40_8/Base sky130_fd_pr__rf_pnp_05v5_W3p40L3p40_8/Base sky130_fd_pr__rf_pnp_05v5_W3p40L3p40_8/Base sky130_fd_pr__nfet_01v8 ad=0.2 pd=1.4 as=0.4 ps=2.8 w=1 l=0.15
X27 1st_Vout_2 cap_res2 sky130_fd_pr__cap_mim_m3_1 l=2 w=2
X28 1st_Vout_2 cap_res2 sky130_fd_pr__cap_mim_m3_1 l=2 w=2
X29 w_32750_1090# V_TOP ERR_AMP_REF w_32750_1090# sky130_fd_pr__pfet_01v8 ad=0.6 pd=3.4 as=0.6 ps=3.4 w=3 l=0.5
X30 1st_Vout_2 cap_res2 sky130_fd_pr__cap_mim_m3_1 l=2 w=2
X31 w_33500_2220# PFET_GATE_10uA V_CMFB_S1 w_33500_2220# sky130_fd_pr__pfet_01v8 ad=0.2 pd=1.4 as=0.2 ps=1.4 w=1 l=0.15
X32 1st_Vout_2 cap_res2 sky130_fd_pr__cap_mim_m3_1 l=2 w=2
X33 VB2_CUR_BIAS NFET_GATE_10uA sky130_fd_pr__rf_pnp_05v5_W3p40L3p40_8/Base sky130_fd_pr__rf_pnp_05v5_W3p40L3p40_8/Base sky130_fd_pr__nfet_01v8 ad=0.2 pd=1.4 as=0.2 ps=1.4 w=1 l=0.15
X34 1st_Vout_1 cap_res1 sky130_fd_pr__cap_mim_m3_1 l=2 w=2
X35 w_32750_1090# PFET_GATE_10uA VB1_CUR_BIAS w_32750_1090# sky130_fd_pr__pfet_01v8 ad=0.2 pd=1.4 as=0.2 ps=1.4 w=1 l=0.15
X36 w_32750_1090# w_32750_1090# VB1_CUR_BIAS w_32750_1090# sky130_fd_pr__pfet_01v8 ad=0.4 pd=2.8 as=0.2 ps=1.4 w=1 l=0.15
X37 1st_Vout_2 cap_res2 sky130_fd_pr__cap_mim_m3_1 l=2 w=2
X38 1st_Vout_2 cap_res2 sky130_fd_pr__cap_mim_m3_1 l=2 w=2
X39 1st_Vout_1 cap_res1 sky130_fd_pr__cap_mim_m3_1 l=2 w=2
X40 w_32720_n90# V_mir1 V_mir1 w_32720_n90# sky130_fd_pr__pfet_01v8 ad=0.2 pd=1.4 as=0.2 ps=1.4 w=1 l=0.2
X41 Vin+ V_TOP w_32750_1090# w_32750_1090# sky130_fd_pr__pfet_01v8 ad=0.6 pd=3.4 as=0.6 ps=3.4 w=3 l=0.5
X42 1st_Vout_1 cap_res1 sky130_fd_pr__cap_mim_m3_1 l=2 w=2
X43 V_TOP m1_35910_n8890# sky130_fd_pr__cap_mim_m3_1 l=2 w=2
X44 V_mir1 Vin- V_p_1 sky130_fd_pr__rf_pnp_05v5_W3p40L3p40_8/Base sky130_fd_pr__nfet_01v8 ad=0.1 pd=0.9 as=0.1 ps=0.9 w=0.5 l=0.2
X45 1st_Vout_1 cap_res1 sky130_fd_pr__cap_mim_m3_1 l=2 w=2
X46 1st_Vout_1 cap_res1 sky130_fd_pr__cap_mim_m3_1 l=2 w=2
X47 TAIL_CUR_MIR_BIAS PFET_GATE_10uA w_33500_2220# w_33500_2220# sky130_fd_pr__pfet_01v8 ad=0.2 pd=1.4 as=0.2 ps=1.4 w=1 l=0.15
X48 w_32720_n90# V_mir2 V_mir2 w_32720_n90# sky130_fd_pr__pfet_01v8 ad=0.2 pd=1.4 as=0.2 ps=1.4 w=1 l=0.2
X49 V_TOP m1_35910_n8890# sky130_fd_pr__cap_mim_m3_1 l=2 w=2
X50 ERR_AMP_REF w_32750_1090# w_32750_1090# w_32750_1090# sky130_fd_pr__pfet_01v8 ad=0.6 pd=3.4 as=1.2 ps=6.8 w=3 l=0.5
X51 V_mir1 Vin- V_p_1 sky130_fd_pr__rf_pnp_05v5_W3p40L3p40_8/Base sky130_fd_pr__nfet_01v8 ad=0.1 pd=0.9 as=0.1 ps=0.9 w=0.5 l=0.2
X52 1st_Vout_1 V_mir1 w_32720_n90# w_32720_n90# sky130_fd_pr__pfet_01v8 ad=0.2 pd=1.4 as=0.2 ps=1.4 w=1 l=0.2
X53 V_TOP m1_35910_n8890# sky130_fd_pr__cap_mim_m3_1 l=2 w=2
X54 1st_Vout_2 cap_res2 sky130_fd_pr__cap_mim_m3_1 l=2 w=2
X55 V_CMFB_S3 PFET_GATE_10uA w_33500_2220# w_33500_2220# sky130_fd_pr__pfet_01v8 ad=0.2 pd=1.4 as=0.2 ps=1.4 w=1 l=0.15
X56 w_32750_1090# V_TOP Vin+ w_32750_1090# sky130_fd_pr__pfet_01v8 ad=0.6 pd=3.4 as=0.6 ps=3.4 w=3 l=0.5
X57 V_TOP m1_35910_n8890# sky130_fd_pr__cap_mim_m3_1 l=2 w=2
X58 sky130_fd_pr__rf_pnp_05v5_W3p40L3p40_8/Emitter Vin+ sky130_fd_pr__rf_pnp_05v5_W3p40L3p40_8/Base sky130_fd_pr__res_xhigh_po_0p35 l=2.3
X59 w_33500_2220# PFET_GATE_10uA NFET_GATE_10uA w_33500_2220# sky130_fd_pr__pfet_01v8 ad=0.2 pd=1.4 as=0.2 ps=1.4 w=1 l=0.15
X60 PFET_GATE_10uA 1st_Vout_2 w_32720_n90# w_32720_n90# sky130_fd_pr__pfet_01v8 ad=0.2 pd=1.4 as=0.2 ps=1.4 w=1 l=0.2
X61 1st_Vout_1 Vin+ V_p_1 sky130_fd_pr__rf_pnp_05v5_W3p40L3p40_8/Base sky130_fd_pr__nfet_01v8 ad=0.1 pd=0.9 as=0.1 ps=0.9 w=0.5 l=0.2
X62 w_32720_n90# V_mir2 1st_Vout_2 w_32720_n90# sky130_fd_pr__pfet_01v8 ad=0.2 pd=1.4 as=0.2 ps=1.4 w=1 l=0.2
X63 sky130_fd_pr__rf_pnp_05v5_W3p40L3p40_8/Base sky130_fd_pr__rf_pnp_05v5_W3p40L3p40_8/Base VB3_CUR_BIAS sky130_fd_pr__rf_pnp_05v5_W3p40L3p40_8/Base sky130_fd_pr__nfet_01v8 ad=0.4 pd=2.8 as=0.2 ps=1.4 w=1 l=0.15
X64 TAIL_CUR_MIR_BIAS PFET_GATE_10uA w_33500_2220# w_33500_2220# sky130_fd_pr__pfet_01v8 ad=0.2 pd=1.4 as=0.2 ps=1.4 w=1 l=0.15
X65 w_32720_n90# 1st_Vout_2 PFET_GATE_10uA w_32720_n90# sky130_fd_pr__pfet_01v8 ad=0.2 pd=1.4 as=0.2 ps=1.4 w=1 l=0.2
X66 V_p_1 Vin+ 1st_Vout_1 sky130_fd_pr__rf_pnp_05v5_W3p40L3p40_8/Base sky130_fd_pr__nfet_01v8 ad=0.1 pd=0.9 as=0.2 ps=1.8 w=0.5 l=0.2
X67 V_CMFB_S3 PFET_GATE_10uA w_33500_2220# w_33500_2220# sky130_fd_pr__pfet_01v8 ad=0.2 pd=1.4 as=0.2 ps=1.4 w=1 l=0.15
X68 w_32720_n90# w_32720_n90# V_TOP w_32720_n90# sky130_fd_pr__pfet_01v8 ad=0.4 pd=2.8 as=0.2 ps=1.4 w=1 l=0.2
X69 V_CMFB_S2 NFET_GATE_10uA sky130_fd_pr__rf_pnp_05v5_W3p40L3p40_8/Base sky130_fd_pr__rf_pnp_05v5_W3p40L3p40_8/Base sky130_fd_pr__nfet_01v8 ad=0.2 pd=1.4 as=0.2 ps=1.4 w=1 l=0.15
X70 V_CMFB_S2 NFET_GATE_10uA sky130_fd_pr__rf_pnp_05v5_W3p40L3p40_8/Base sky130_fd_pr__rf_pnp_05v5_W3p40L3p40_8/Base sky130_fd_pr__nfet_01v8 ad=0.2 pd=1.4 as=0.2 ps=1.4 w=1 l=0.15
X71 V_CMFB_S1 PFET_GATE_10uA w_33500_2220# w_33500_2220# sky130_fd_pr__pfet_01v8 ad=0.2 pd=1.4 as=0.2 ps=1.4 w=1 l=0.15
X72 Vin+ a_38040_n7928# sky130_fd_pr__rf_pnp_05v5_W3p40L3p40_8/Base sky130_fd_pr__res_xhigh_po_0p35 l=6
X73 1st_Vout_1 V_mir1 w_32720_n90# w_32720_n90# sky130_fd_pr__pfet_01v8 ad=0.2 pd=1.4 as=0.2 ps=1.4 w=1 l=0.2
X74 TAIL_CUR_MIR_BIAS PFET_GATE_10uA w_33500_2220# w_33500_2220# sky130_fd_pr__pfet_01v8 ad=0.2 pd=1.4 as=0.2 ps=1.4 w=1 l=0.15
X75 V_mir1 V_mir1 w_32720_n90# w_32720_n90# sky130_fd_pr__pfet_01v8 ad=0.2 pd=1.4 as=0.2 ps=1.4 w=1 l=0.2
X76 V_TOP m1_35910_n8890# sky130_fd_pr__cap_mim_m3_1 l=2 w=2
X77 sky130_fd_pr__rf_pnp_05v5_W3p40L3p40_8/Base a_33140_n1680# PFET_GATE_10uA sky130_fd_pr__rf_pnp_05v5_W3p40L3p40_8/Base sky130_fd_pr__nfet_01v8 ad=1 pd=5.8 as=1 ps=5.8 w=2.5 l=5
X78 w_32720_n90# 1st_Vout_1 V_TOP w_32720_n90# sky130_fd_pr__pfet_01v8 ad=0.2 pd=1.4 as=0.2 ps=1.4 w=1 l=0.2
X79 PFET_GATE_10uA 1st_Vout_2 w_32720_n90# w_32720_n90# sky130_fd_pr__pfet_01v8 ad=0.2 pd=1.4 as=0.2 ps=1.4 w=1 l=0.2
X80 V_p_2 ERR_AMP_REF V_mir2 sky130_fd_pr__rf_pnp_05v5_W3p40L3p40_8/Base sky130_fd_pr__nfet_01v8 ad=0.1 pd=0.9 as=0.2 ps=1.8 w=0.5 l=0.2
X81 V_TOP a_33140_n1680# sky130_fd_pr__rf_pnp_05v5_W3p40L3p40_8/Base sky130_fd_pr__rf_pnp_05v5_W3p40L3p40_8/Base sky130_fd_pr__nfet_01v8 ad=1 pd=5.8 as=1.01 ps=6.15 w=2.5 l=5
X82 V_TOP m1_35910_n8890# sky130_fd_pr__cap_mim_m3_1 l=2 w=2
X83 VB3_CUR_BIAS NFET_GATE_10uA sky130_fd_pr__rf_pnp_05v5_W3p40L3p40_8/Base sky130_fd_pr__rf_pnp_05v5_W3p40L3p40_8/Base sky130_fd_pr__nfet_01v8 ad=0.2 pd=1.4 as=0.2 ps=1.4 w=1 l=0.15
X84 sky130_fd_pr__rf_pnp_05v5_W3p40L3p40_8/Base NFET_GATE_10uA ERR_AMP_CUR_BIAS sky130_fd_pr__rf_pnp_05v5_W3p40L3p40_8/Base sky130_fd_pr__nfet_01v8 ad=0.2 pd=1.4 as=0.2 ps=1.4 w=1 l=0.15
X85 w_32720_n90# V_mir1 1st_Vout_1 w_32720_n90# sky130_fd_pr__pfet_01v8 ad=0.2 pd=1.4 as=0.2 ps=1.4 w=1 l=0.2
X86 V_p_1 Vin+ 1st_Vout_1 sky130_fd_pr__rf_pnp_05v5_W3p40L3p40_8/Base sky130_fd_pr__nfet_01v8 ad=0.1 pd=0.9 as=0.1 ps=0.9 w=0.5 l=0.2
X87 1st_Vout_2 cap_res2 sky130_fd_pr__cap_mim_m3_1 l=2 w=2
X88 1st_Vout_2 cap_res2 sky130_fd_pr__cap_mim_m3_1 l=2 w=2
X89 V_CMFB_S1 w_33500_2220# w_33500_2220# w_33500_2220# sky130_fd_pr__pfet_01v8 ad=0.2 pd=1.4 as=0.4 ps=2.8 w=1 l=0.15
X90 w_32720_n90# V_mir2 1st_Vout_2 w_32720_n90# sky130_fd_pr__pfet_01v8 ad=0.2 pd=1.4 as=0.2 ps=1.4 w=1 l=0.2
X91 1st_Vout_2 cap_res2 sky130_fd_pr__cap_mim_m3_1 l=2 w=2
X92 w_32720_n90# 1st_Vout_2 PFET_GATE_10uA w_32720_n90# sky130_fd_pr__pfet_01v8 ad=0.2 pd=1.4 as=0.2 ps=1.4 w=1 l=0.2
X93 V_p_2 V_CUR_REF_REG 1st_Vout_2 sky130_fd_pr__rf_pnp_05v5_W3p40L3p40_8/Base sky130_fd_pr__nfet_01v8 ad=0.1 pd=0.9 as=0.1 ps=0.9 w=0.5 l=0.2
X94 1st_Vout_1 cap_res1 sky130_fd_pr__cap_mim_m3_1 l=2 w=2
X95 NFET_GATE_10uA w_33500_2220# w_33500_2220# w_33500_2220# sky130_fd_pr__pfet_01v8 ad=0.2 pd=1.4 as=0.4 ps=2.8 w=1 l=0.15
X96 TAIL_CUR_MIR_BIAS PFET_GATE_10uA w_33500_2220# w_33500_2220# sky130_fd_pr__pfet_01v8 ad=0.2 pd=1.4 as=0.2 ps=1.4 w=1 l=0.15
X97 V_TOP w_32720_n90# w_32720_n90# w_32720_n90# sky130_fd_pr__pfet_01v8 ad=0.2 pd=1.4 as=0.4 ps=2.8 w=1 l=0.2
X98 1st_Vout_2 cap_res2 sky130_fd_pr__cap_mim_m3_1 l=2 w=2
X99 V_CUR_REF_REG PFET_GATE_10uA w_33500_2220# w_33500_2220# sky130_fd_pr__pfet_01v8 ad=0.2 pd=1.4 as=0.2 ps=1.4 w=1 l=0.15
X100 1st_Vout_1 cap_res1 sky130_fd_pr__cap_mim_m3_1 l=2 w=2
X101 V_TOP m1_35910_n8890# sky130_fd_pr__cap_mim_m3_1 l=2 w=2
X102 V_CMFB_S4 NFET_GATE_10uA sky130_fd_pr__rf_pnp_05v5_W3p40L3p40_8/Base sky130_fd_pr__rf_pnp_05v5_W3p40L3p40_8/Base sky130_fd_pr__nfet_01v8 ad=0.2 pd=1.4 as=0.2 ps=1.4 w=1 l=0.15
X103 V_mir2 V_mir2 w_32720_n90# w_32720_n90# sky130_fd_pr__pfet_01v8 ad=0.2 pd=1.4 as=0.2 ps=1.4 w=1 l=0.2
X104 1st_Vout_1 cap_res1 sky130_fd_pr__cap_mim_m3_1 l=2 w=2
X105 sky130_fd_pr__rf_pnp_05v5_W3p40L3p40_8/Base NFET_GATE_10uA V_CMFB_S4 sky130_fd_pr__rf_pnp_05v5_W3p40L3p40_8/Base sky130_fd_pr__nfet_01v8 ad=0.2 pd=1.4 as=0.2 ps=1.4 w=1 l=0.15
X106 1st_Vout_2 V_mir2 w_32720_n90# w_32720_n90# sky130_fd_pr__pfet_01v8 ad=0.2 pd=1.4 as=0.2 ps=1.4 w=1 l=0.2
X107 1st_Vout_1 cap_res1 sky130_fd_pr__cap_mim_m3_1 l=2 w=2
X108 V_TOP m1_35910_n8890# sky130_fd_pr__cap_mim_m3_1 l=2 w=2
X109 1st_Vout_2 cap_res2 sky130_fd_pr__cap_mim_m3_1 l=2 w=2
X110 Vin- a_32970_n7928# sky130_fd_pr__rf_pnp_05v5_W3p40L3p40_8/Base sky130_fd_pr__res_xhigh_po_0p35 l=6
X111 w_32750_1090# w_32750_1090# V_TOP w_32750_1090# sky130_fd_pr__pfet_01v8 ad=0.45 pd=2.9 as=0.2 ps=1.4 w=1 l=0.15
X112 w_32750_1090# V_TOP Vin- w_32750_1090# sky130_fd_pr__pfet_01v8 ad=0.6 pd=3.4 as=0.6 ps=3.4 w=3 l=0.5
X113 V_TOP m1_35910_n8890# sky130_fd_pr__cap_mim_m3_1 l=2 w=2
X114 a_32440_n6570# a_32320_n7778# sky130_fd_pr__rf_pnp_05v5_W3p40L3p40_8/Base sky130_fd_pr__res_xhigh_po_0p35 l=4
X115 ERR_AMP_REF V_TOP w_32750_1090# w_32750_1090# sky130_fd_pr__pfet_01v8 ad=0.6 pd=3.4 as=0.6 ps=3.4 w=3 l=0.5
X116 w_32720_n90# V_mir1 1st_Vout_1 w_32720_n90# sky130_fd_pr__pfet_01v8 ad=0.2 pd=1.4 as=0.2 ps=1.4 w=1 l=0.2
X117 1st_Vout_2 V_CUR_REF_REG V_p_2 sky130_fd_pr__rf_pnp_05v5_W3p40L3p40_8/Base sky130_fd_pr__nfet_01v8 ad=0.1 pd=0.9 as=0.1 ps=0.9 w=0.5 l=0.2
X118 w_32720_n90# V_mir1 V_mir1 w_32720_n90# sky130_fd_pr__pfet_01v8 ad=0.2 pd=1.4 as=0.2 ps=1.4 w=1 l=0.2
X119 Vin+ V_TOP w_32750_1090# w_32750_1090# sky130_fd_pr__pfet_01v8 ad=0.6 pd=3.4 as=0.6 ps=3.4 w=3 l=0.5
X120 V_mir1 Vin- V_p_1 sky130_fd_pr__rf_pnp_05v5_W3p40L3p40_8/Base sky130_fd_pr__nfet_01v8 ad=0.2 pd=1.8 as=0.1 ps=0.9 w=0.5 l=0.2
X121 V_TOP m1_35910_n8890# sky130_fd_pr__cap_mim_m3_1 l=2 w=2
X122 a_38570_n6504# sky130_fd_pr__rf_pnp_05v5_W3p40L3p40_8/Base sky130_fd_pr__rf_pnp_05v5_W3p40L3p40_8/Base sky130_fd_pr__res_xhigh_po_0p35 l=4.33
X123 a_33090_n6320# a_32560_n7778# sky130_fd_pr__rf_pnp_05v5_W3p40L3p40_8/Base sky130_fd_pr__res_xhigh_po_0p35 l=6
X124 V_mir1 V_mir1 w_32720_n90# w_32720_n90# sky130_fd_pr__pfet_01v8 ad=0.2 pd=1.4 as=0.2 ps=1.4 w=1 l=0.2
X125 w_32720_n90# w_32720_n90# PFET_GATE_10uA w_32720_n90# sky130_fd_pr__pfet_01v8 ad=0.4 pd=2.8 as=0.2 ps=1.4 w=1 l=0.2
X126 sky130_fd_pr__rf_pnp_05v5_W3p40L3p40_8/Base a_33140_n1680# V_p_1 sky130_fd_pr__rf_pnp_05v5_W3p40L3p40_8/Base sky130_fd_pr__nfet_01v8 ad=1.01 pd=6.15 as=1 ps=5.8 w=2.5 l=5
X127 V_CMFB_S1 PFET_GATE_10uA w_33500_2220# w_33500_2220# sky130_fd_pr__pfet_01v8 ad=0.2 pd=1.4 as=0.2 ps=1.4 w=1 l=0.15
X128 Vin- START_UP V_TOP w_32750_1090# sky130_fd_pr__pfet_01v8 ad=0.2 pd=1.4 as=0.2 ps=1.4 w=1 l=0.15
X129 V_TOP 1st_Vout_1 w_32720_n90# w_32720_n90# sky130_fd_pr__pfet_01v8 ad=0.2 pd=1.4 as=0.2 ps=1.4 w=1 l=0.2
X130 V_mir2 ERR_AMP_REF V_p_2 sky130_fd_pr__rf_pnp_05v5_W3p40L3p40_8/Base sky130_fd_pr__nfet_01v8 ad=0.1 pd=0.9 as=0.1 ps=0.9 w=0.5 l=0.2
X131 Vin- V_TOP w_32750_1090# w_32750_1090# sky130_fd_pr__pfet_01v8 ad=0.6 pd=3.4 as=0.6 ps=3.4 w=3 l=0.5
X132 a_37920_n6320# sky130_fd_pr__rf_pnp_05v5_W3p40L3p40_8/Base sky130_fd_pr__rf_pnp_05v5_W3p40L3p40_8/Base sky130_fd_pr__res_xhigh_po_0p35 l=6
X133 V_mir2 V_mir2 w_32720_n90# w_32720_n90# sky130_fd_pr__pfet_01v8 ad=0.2 pd=1.4 as=0.2 ps=1.4 w=1 l=0.2
X134 PFET_GATE_10uA cap_res2 sky130_fd_pr__rf_pnp_05v5_W3p40L3p40_8/Base sky130_fd_pr__res_high_po_0p35 l=2.05
X135 w_32750_1090# V_TOP START_UP w_32750_1090# sky130_fd_pr__pfet_01v8 ad=0.6 pd=3.4 as=0.6 ps=3.4 w=3 l=0.5
X136 1st_Vout_2 V_mir2 w_32720_n90# w_32720_n90# sky130_fd_pr__pfet_01v8 ad=0.2 pd=1.4 as=0.2 ps=1.4 w=1 l=0.2
X137 V_TOP m1_35910_n8890# sky130_fd_pr__cap_mim_m3_1 l=2 w=2
X138 w_32720_n90# 1st_Vout_2 PFET_GATE_10uA w_32720_n90# sky130_fd_pr__pfet_01v8 ad=0.2 pd=1.4 as=0.2 ps=1.4 w=1 l=0.2
X139 V_TOP cap_res1 sky130_fd_pr__rf_pnp_05v5_W3p40L3p40_8/Base sky130_fd_pr__res_high_po_0p35 l=2.05
X140 V_TOP m1_35910_n8890# sky130_fd_pr__cap_mim_m3_1 l=2 w=2
X141 w_32750_1090# V_TOP ERR_AMP_REF w_32750_1090# sky130_fd_pr__pfet_01v8 ad=0.6 pd=3.4 as=0.6 ps=3.4 w=3 l=0.5
X142 w_32720_n90# V_mir2 V_mir2 w_32720_n90# sky130_fd_pr__pfet_01v8 ad=0.2 pd=1.4 as=0.2 ps=1.4 w=1 l=0.2
X143 w_33500_2220# PFET_GATE_10uA TAIL_CUR_MIR_BIAS w_33500_2220# sky130_fd_pr__pfet_01v8 ad=0.2 pd=1.4 as=0.2 ps=1.4 w=1 l=0.15
X144 V_TOP m1_35910_n8890# sky130_fd_pr__cap_mim_m3_1 l=2 w=2
X145 1st_Vout_2 cap_res2 sky130_fd_pr__cap_mim_m3_1 l=2 w=2
X146 sky130_fd_pr__rf_pnp_05v5_W3p40L3p40_8/Base NFET_GATE_10uA VB2_CUR_BIAS sky130_fd_pr__rf_pnp_05v5_W3p40L3p40_8/Base sky130_fd_pr__nfet_01v8 ad=0.2 pd=1.4 as=0.2 ps=1.4 w=1 l=0.15
X147 V_TOP m1_35910_n8890# sky130_fd_pr__cap_mim_m3_1 l=2 w=2
X148 w_32750_1090# V_TOP START_UP w_32750_1090# sky130_fd_pr__pfet_01v8 ad=0.6 pd=3.4 as=0.6 ps=3.4 w=3 l=0.5
X149 VB1_CUR_BIAS w_32750_1090# w_32750_1090# w_32750_1090# sky130_fd_pr__pfet_01v8 ad=0.2 pd=1.4 as=0.4 ps=2.8 w=1 l=0.15
X150 VB1_CUR_BIAS PFET_GATE_10uA w_32750_1090# w_32750_1090# sky130_fd_pr__pfet_01v8 ad=0.2 pd=1.4 as=0.2 ps=1.4 w=1 l=0.15
X151 sky130_fd_pr__rf_pnp_05v5_W3p40L3p40_8/Base sky130_fd_pr__rf_pnp_05v5_W3p40L3p40_8/Base VB2_CUR_BIAS sky130_fd_pr__rf_pnp_05v5_W3p40L3p40_8/Base sky130_fd_pr__nfet_01v8 ad=0.4 pd=2.8 as=0.2 ps=1.4 w=1 l=0.15
X152 w_33500_2220# w_33500_2220# V_CMFB_S3 w_33500_2220# sky130_fd_pr__pfet_01v8 ad=0.4 pd=2.8 as=0.2 ps=1.4 w=1 l=0.15
X153 START_UP_NFET1 START_UP START_UP sky130_fd_pr__rf_pnp_05v5_W3p40L3p40_8/Base sky130_fd_pr__nfet_01v8 ad=0.2 pd=1.4 as=0.4 ps=2.8 w=1 l=10
X154 1st_Vout_1 cap_res1 sky130_fd_pr__cap_mim_m3_1 l=2 w=2
X155 PFET_GATE_10uA w_32720_n90# w_32720_n90# w_32720_n90# sky130_fd_pr__pfet_01v8 ad=0.2 pd=1.4 as=0.4 ps=2.8 w=1 l=0.2
X156 1st_Vout_2 cap_res2 sky130_fd_pr__cap_mim_m3_1 l=2 w=2
X157 V_p_1 Vin- V_mir1 sky130_fd_pr__rf_pnp_05v5_W3p40L3p40_8/Base sky130_fd_pr__nfet_01v8 ad=0.1 pd=0.9 as=0.1 ps=0.9 w=0.5 l=0.2
X158 V_p_2 V_CUR_REF_REG 1st_Vout_2 sky130_fd_pr__rf_pnp_05v5_W3p40L3p40_8/Base sky130_fd_pr__nfet_01v8 ad=0.1 pd=0.9 as=0.1 ps=0.9 w=0.5 l=0.2
X159 START_UP V_TOP w_32750_1090# w_32750_1090# sky130_fd_pr__pfet_01v8 ad=0.6 pd=3.4 as=0.6 ps=3.4 w=3 l=0.5
X160 1st_Vout_1 cap_res1 sky130_fd_pr__cap_mim_m3_1 l=2 w=2
X161 V_TOP m1_35910_n8890# sky130_fd_pr__cap_mim_m3_1 l=2 w=2
X162 VB3_CUR_BIAS NFET_GATE_10uA sky130_fd_pr__rf_pnp_05v5_W3p40L3p40_8/Base sky130_fd_pr__rf_pnp_05v5_W3p40L3p40_8/Base sky130_fd_pr__nfet_01v8 ad=0.2 pd=1.4 as=0.2 ps=1.4 w=1 l=0.15
X163 1st_Vout_1 cap_res1 sky130_fd_pr__cap_mim_m3_1 l=2 w=2
X164 sky130_fd_pr__rf_pnp_05v5_W3p40L3p40_8/Base NFET_GATE_10uA VB3_CUR_BIAS sky130_fd_pr__rf_pnp_05v5_W3p40L3p40_8/Base sky130_fd_pr__nfet_01v8 ad=0.2 pd=1.4 as=0.2 ps=1.4 w=1 l=0.15
X165 ERR_AMP_CUR_BIAS NFET_GATE_10uA sky130_fd_pr__rf_pnp_05v5_W3p40L3p40_8/Base sky130_fd_pr__rf_pnp_05v5_W3p40L3p40_8/Base sky130_fd_pr__nfet_01v8 ad=0.2 pd=1.4 as=0.2 ps=1.4 w=1 l=0.15
X166 w_33500_2220# PFET_GATE_10uA TAIL_CUR_MIR_BIAS w_33500_2220# sky130_fd_pr__pfet_01v8 ad=0.2 pd=1.4 as=0.2 ps=1.4 w=1 l=0.15
X167 ERR_AMP_REF V_TOP w_32750_1090# w_32750_1090# sky130_fd_pr__pfet_01v8 ad=0.6 pd=3.4 as=0.6 ps=3.4 w=3 l=0.5
X168 V_TOP 1st_Vout_1 w_32720_n90# w_32720_n90# sky130_fd_pr__pfet_01v8 ad=0.2 pd=1.4 as=0.2 ps=1.4 w=1 l=0.2
X169 V_p_2 ERR_AMP_REF V_mir2 sky130_fd_pr__rf_pnp_05v5_W3p40L3p40_8/Base sky130_fd_pr__nfet_01v8 ad=0.1 pd=0.9 as=0.1 ps=0.9 w=0.5 l=0.2
X170 1st_Vout_1 cap_res1 sky130_fd_pr__cap_mim_m3_1 l=2 w=2
X171 1st_Vout_1 V_mir1 w_32720_n90# w_32720_n90# sky130_fd_pr__pfet_01v8 ad=0.2 pd=1.4 as=0.2 ps=1.4 w=1 l=0.2
X172 ERR_AMP_REF a_38690_n7778# sky130_fd_pr__rf_pnp_05v5_W3p40L3p40_8/Base sky130_fd_pr__res_xhigh_po_0p35 l=4.33
X173 START_UP V_TOP w_32750_1090# w_32750_1090# sky130_fd_pr__pfet_01v8 ad=0.6 pd=3.4 as=0.6 ps=3.4 w=3 l=0.5
X174 w_32720_n90# V_mir1 V_mir1 w_32720_n90# sky130_fd_pr__pfet_01v8 ad=0.2 pd=1.4 as=0.2 ps=1.4 w=1 l=0.2
X175 sky130_fd_pr__rf_pnp_05v5_W3p40L3p40_8/Base NFET_GATE_10uA VB2_CUR_BIAS sky130_fd_pr__rf_pnp_05v5_W3p40L3p40_8/Base sky130_fd_pr__nfet_01v8 ad=0.2 pd=1.4 as=0.2 ps=1.4 w=1 l=0.15
X176 w_33500_2220# PFET_GATE_10uA V_CMFB_S3 w_33500_2220# sky130_fd_pr__pfet_01v8 ad=0.2 pd=1.4 as=0.2 ps=1.4 w=1 l=0.15
X177 w_32720_n90# 1st_Vout_1 V_TOP w_32720_n90# sky130_fd_pr__pfet_01v8 ad=0.2 pd=1.4 as=0.2 ps=1.4 w=1 l=0.2
X178 V_TOP w_32750_1090# w_32750_1090# w_32750_1090# sky130_fd_pr__pfet_01v8 ad=0.2 pd=1.4 as=0.4 ps=2.8 w=1 l=0.15
X179 w_32720_n90# V_mir2 V_mir2 w_32720_n90# sky130_fd_pr__pfet_01v8 ad=0.2 pd=1.4 as=0.2 ps=1.4 w=1 l=0.2
X180 sky130_fd_pr__rf_pnp_05v5_W3p40L3p40_8/Base NFET_GATE_10uA VB2_CUR_BIAS sky130_fd_pr__rf_pnp_05v5_W3p40L3p40_8/Base sky130_fd_pr__nfet_01v8 ad=0.2 pd=1.4 as=0.2 ps=1.4 w=1 l=0.15
X181 V_CMFB_S4 sky130_fd_pr__rf_pnp_05v5_W3p40L3p40_8/Base sky130_fd_pr__rf_pnp_05v5_W3p40L3p40_8/Base sky130_fd_pr__rf_pnp_05v5_W3p40L3p40_8/Base sky130_fd_pr__nfet_01v8 ad=0.2 pd=1.4 as=0.4 ps=2.8 w=1 l=0.15
X182 w_32750_1090# V_TOP Vin- w_32750_1090# sky130_fd_pr__pfet_01v8 ad=0.6 pd=3.4 as=0.6 ps=3.4 w=3 l=0.5
X183 1st_Vout_1 cap_res1 sky130_fd_pr__cap_mim_m3_1 l=2 w=2
X184 w_32720_n90# V_mir2 1st_Vout_2 w_32720_n90# sky130_fd_pr__pfet_01v8 ad=0.2 pd=1.4 as=0.2 ps=1.4 w=1 l=0.2
X185 a_33090_n6320# a_32970_n7928# sky130_fd_pr__rf_pnp_05v5_W3p40L3p40_8/Base sky130_fd_pr__res_xhigh_po_0p35 l=6
X186 w_33500_2220# PFET_GATE_10uA TAIL_CUR_MIR_BIAS w_33500_2220# sky130_fd_pr__pfet_01v8 ad=0.2 pd=1.4 as=0.2 ps=1.4 w=1 l=0.15
X187 w_32750_1090# V_TOP Vin+ w_32750_1090# sky130_fd_pr__pfet_01v8 ad=0.6 pd=3.4 as=0.6 ps=3.4 w=3 l=0.5
X188 PFET_GATE_10uA 1st_Vout_2 w_32720_n90# w_32720_n90# sky130_fd_pr__pfet_01v8 ad=0.2 pd=1.4 as=0.2 ps=1.4 w=1 l=0.2
X189 1st_Vout_2 cap_res2 sky130_fd_pr__cap_mim_m3_1 l=2 w=2
X190 V_TOP m1_35910_n8890# sky130_fd_pr__cap_mim_m3_1 l=2 w=2
X191 w_33500_2220# PFET_GATE_10uA V_CMFB_S3 w_33500_2220# sky130_fd_pr__pfet_01v8 ad=0.2 pd=1.4 as=0.2 ps=1.4 w=1 l=0.15
X192 1st_Vout_2 cap_res2 sky130_fd_pr__cap_mim_m3_1 l=2 w=2
X193 1st_Vout_1 Vin+ V_p_1 sky130_fd_pr__rf_pnp_05v5_W3p40L3p40_8/Base sky130_fd_pr__nfet_01v8 ad=0.1 pd=0.9 as=0.1 ps=0.9 w=0.5 l=0.2
X194 V_mir2 ERR_AMP_REF V_p_2 sky130_fd_pr__rf_pnp_05v5_W3p40L3p40_8/Base sky130_fd_pr__nfet_01v8 ad=0.1 pd=0.9 as=0.1 ps=0.9 w=0.5 l=0.2
X195 w_33500_2220# PFET_GATE_10uA V_CMFB_S1 w_33500_2220# sky130_fd_pr__pfet_01v8 ad=0.2 pd=1.4 as=0.2 ps=1.4 w=1 l=0.15
X196 V_TOP 1st_Vout_1 w_32720_n90# w_32720_n90# sky130_fd_pr__pfet_01v8 ad=0.2 pd=1.4 as=0.2 ps=1.4 w=1 l=0.2
X197 1st_Vout_2 cap_res2 sky130_fd_pr__cap_mim_m3_1 l=2 w=2
X198 Vin- V_TOP w_32750_1090# w_32750_1090# sky130_fd_pr__pfet_01v8 ad=0.6 pd=3.4 as=0.6 ps=3.4 w=3 l=0.5
X199 1st_Vout_1 cap_res1 sky130_fd_pr__cap_mim_m3_1 l=2 w=2
X200 w_33500_2220# PFET_GATE_10uA TAIL_CUR_MIR_BIAS w_33500_2220# sky130_fd_pr__pfet_01v8 ad=0.2 pd=1.4 as=0.2 ps=1.4 w=1 l=0.15
X201 w_33500_2220# w_33500_2220# V_CUR_REF_REG w_33500_2220# sky130_fd_pr__pfet_01v8 ad=0.4 pd=2.8 as=0.2 ps=1.4 w=1 l=0.15
X202 1st_Vout_2 V_CUR_REF_REG V_p_2 sky130_fd_pr__rf_pnp_05v5_W3p40L3p40_8/Base sky130_fd_pr__nfet_01v8 ad=0.2 pd=1.8 as=0.1 ps=0.9 w=0.5 l=0.2
X203 1st_Vout_1 cap_res1 sky130_fd_pr__cap_mim_m3_1 l=2 w=2
X204 1st_Vout_1 cap_res1 sky130_fd_pr__cap_mim_m3_1 l=2 w=2
X205 a_37920_n6320# a_38040_n7928# sky130_fd_pr__rf_pnp_05v5_W3p40L3p40_8/Base sky130_fd_pr__res_xhigh_po_0p35 l=6
X206 w_32720_n90# 1st_Vout_1 V_TOP w_32720_n90# sky130_fd_pr__pfet_01v8 ad=0.2 pd=1.4 as=0.2 ps=1.4 w=1 l=0.2
X207 V_TOP m1_35910_n8890# sky130_fd_pr__cap_mim_m3_1 l=2 w=2
X208 1st_Vout_2 V_CUR_REF_REG V_p_2 sky130_fd_pr__rf_pnp_05v5_W3p40L3p40_8/Base sky130_fd_pr__nfet_01v8 ad=0.1 pd=0.9 as=0.1 ps=0.9 w=0.5 l=0.2
X209 w_32750_1090# w_32750_1090# ERR_AMP_REF w_32750_1090# sky130_fd_pr__pfet_01v8 ad=1.2 pd=6.8 as=0.6 ps=3.4 w=3 l=0.5
X210 w_32720_n90# V_mir1 1st_Vout_1 w_32720_n90# sky130_fd_pr__pfet_01v8 ad=0.2 pd=1.4 as=0.2 ps=1.4 w=1 l=0.2
X211 V_TOP m1_35910_n8890# sky130_fd_pr__cap_mim_m3_1 l=2 w=2
X212 V_TOP m1_35910_n8890# sky130_fd_pr__cap_mim_m3_1 l=2 w=2
X213 1st_Vout_2 cap_res2 sky130_fd_pr__cap_mim_m3_1 l=2 w=2
X214 a_32440_n6570# a_32560_n7778# sky130_fd_pr__rf_pnp_05v5_W3p40L3p40_8/Base sky130_fd_pr__res_xhigh_po_0p35 l=4
X215 V_TOP m1_35910_n8890# sky130_fd_pr__cap_mim_m3_1 l=2 w=2
X216 V_mir1 V_mir1 w_32720_n90# w_32720_n90# sky130_fd_pr__pfet_01v8 ad=0.2 pd=1.4 as=0.2 ps=1.4 w=1 l=0.2
.ends

.subckt two_stage_opamp_dummy_magic_23 V_CMFB_S1 V_CMFB_S3 Vb3 Vb2 Vb1 V_CMFB_S2 V_CMFB_S4
+ VOUT- VOUT+ V_err_amp_ref V_err_gate a_109830_3220# V_tail_gate w_109730_7340# VIN-
+ VIN+
X0 VD4 Vb2 Y VD4 sky130_fd_pr__pfet_01v8 ad=0.7 pd=3.9 as=0.7 ps=3.9 w=3.5 l=0.2
X1 VD2 VIN+ V_source a_109830_3220# sky130_fd_pr__nfet_01v8 ad=0.3 pd=1.9 as=0.3 ps=1.9 w=1.5 l=0.15
X2 w_109730_7340# Vb3 VD3 w_109730_7340# sky130_fd_pr__pfet_01v8 ad=0.7 pd=3.9 as=0.7 ps=3.9 w=3.5 l=0.2
X3 V_err_p V_err_gate w_109730_7340# w_109730_7340# sky130_fd_pr__pfet_01v8 ad=0.1 pd=0.9 as=0.1 ps=0.9 w=0.5 l=0.15
X4 VOUT- cap_res_X sky130_fd_pr__cap_mim_m3_1 l=2 w=2
X5 VOUT+ cap_res_Y sky130_fd_pr__cap_mim_m3_1 l=2 w=2
X6 VD2 Vb1 Y a_109830_3220# sky130_fd_pr__nfet_01v8 ad=0.3 pd=1.9 as=0.3 ps=1.9 w=1.5 l=0.15
X7 VOUT- cap_res_X sky130_fd_pr__cap_mim_m3_1 l=2 w=2
X8 VOUT+ cap_res_Y sky130_fd_pr__cap_mim_m3_1 l=2 w=2
X9 VOUT- cap_res_X sky130_fd_pr__cap_mim_m3_1 l=2 w=2
X10 VD1 Vb1 X a_109830_3220# sky130_fd_pr__nfet_01v8 ad=0.3 pd=1.9 as=0.3 ps=1.9 w=1.5 l=0.15
X11 VOUT- X w_109730_7340# w_109730_7340# sky130_fd_pr__pfet_01v8 ad=1.2 pd=6.4 as=1.2 ps=6.4 w=6 l=0.15
X12 VOUT+ cap_res_Y sky130_fd_pr__cap_mim_m3_1 l=2 w=2
X13 w_109730_7340# Y V_CMFB_S4 a_109830_3220# sky130_fd_pr__nfet_01v8 ad=0.6 pd=3.4 as=0.6 ps=3.4 w=3 l=0.15
X14 V_CMFB_S1 X a_109830_3220# w_109730_7340# sky130_fd_pr__pfet_01v8 ad=0.4 pd=2.4 as=0.4 ps=2.4 w=2 l=0.15
X15 w_109730_7340# Y V_CMFB_S4 a_109830_3220# sky130_fd_pr__nfet_01v8 ad=0.6 pd=3.4 as=0.6 ps=3.4 w=3 l=0.15
X16 VOUT+ cap_res_Y sky130_fd_pr__cap_mim_m3_1 l=2 w=2
X17 w_109730_7340# w_109730_7340# VD3 w_109730_7340# sky130_fd_pr__pfet_01v8 ad=1.4 pd=7.8 as=0.7 ps=3.9 w=3.5 l=0.2
X18 VOUT- cap_res_X sky130_fd_pr__cap_mim_m3_1 l=2 w=2
X19 VOUT+ cap_res_Y sky130_fd_pr__cap_mim_m3_1 l=2 w=2
X20 w_109730_7340# V_err_gate a_112280_5790# w_109730_7340# sky130_fd_pr__pfet_01v8 ad=0.1 pd=0.9 as=0.1 ps=0.9 w=0.5 l=0.15
X21 a_109830_3220# err_amp_mir err_amp_mir a_109830_3220# sky130_fd_pr__nfet_01v8 ad=0.1 pd=0.9 as=0.1 ps=0.9 w=0.5 l=0.15
X22 a_109830_3220# a_109830_3220# a_109830_3220# a_109830_3220# sky130_fd_pr__nfet_01v8 ad=1 pd=5.8 as=48.8 ps=279.2 w=2.5 l=0.15
X23 a_109830_3220# a_109830_3220# err_amp_mir a_109830_3220# sky130_fd_pr__nfet_01v8 ad=0.2 pd=1.8 as=0.1 ps=0.9 w=0.5 l=0.15
X24 Y Vb1 VD2 a_109830_3220# sky130_fd_pr__nfet_01v8 ad=0.3 pd=1.9 as=0.3 ps=1.9 w=1.5 l=0.15
X25 Vb1 Vb1 a_113080_1090# a_109830_3220# sky130_fd_pr__nfet_01v8 ad=0.3 pd=1.9 as=0.3 ps=1.9 w=1.5 l=0.15
X26 w_109730_7340# V_err_gate V_err_p w_109730_7340# sky130_fd_pr__pfet_01v8 ad=0.1 pd=0.9 as=0.1 ps=0.9 w=0.5 l=0.15
X27 V_source VIN- VD1 a_109830_3220# sky130_fd_pr__nfet_01v8 ad=0.3 pd=1.9 as=0.3 ps=1.9 w=1.5 l=0.15
X28 Vb2_2 Vb2_2 Vb2_2 Vb2_2 sky130_fd_pr__pfet_01v8 ad=0.7 pd=3.9 as=4.92 ps=27.8 w=3.5 l=0.2
X29 VOUT+ cap_res_Y sky130_fd_pr__cap_mim_m3_1 l=2 w=2
X30 a_118270_3858# V_tot a_109830_3220# sky130_fd_pr__res_xhigh_po_0p35 l=1.75
X31 a_109830_3220# V_b_2nd_stage VOUT- a_109830_3220# sky130_fd_pr__nfet_01v8 ad=1.4 pd=7.4 as=1.4 ps=7.4 w=7 l=0.6