* PEX produced on Fri Aug 22 11:19:30 PM CEST 2025 using /foss/tools/osic-multitool/iic-pex.sh with m=3 and s=1
* NGSPICE file created from bgr_opamp_dummy_magic_19.ext - technology: sky130A

.subckt bgr_opamp_dummy_magic_19 VDDA GNDA VOUT+ VOUT- VIN+ VIN-
X0 VDDA.t219 bgr_11_0.1st_Vout_2.t7 bgr_11_0.PFET_GATE_10uA.t9 VDDA.t218 sky130_fd_pr__pfet_01v8 ad=0.2 pd=1.4 as=0.2 ps=1.4 w=1 l=0.2
X1 two_stage_opamp_dummy_magic_26_0.VD1.t18 two_stage_opamp_dummy_magic_26_0.Vb1.t12 two_stage_opamp_dummy_magic_26_0.X.t16 GNDA.t67 sky130_fd_pr__nfet_01v8 ad=0.3 pd=1.9 as=0.3 ps=1.9 w=1.5 l=0.15
X2 VOUT-.t19 two_stage_opamp_dummy_magic_26_0.cap_res_X.t138 sky130_fd_pr__cap_mim_m3_1 l=2 w=2
X3 VOUT+.t19 two_stage_opamp_dummy_magic_26_0.cap_res_Y.t137 sky130_fd_pr__cap_mim_m3_1 l=2 w=2
X4 two_stage_opamp_dummy_magic_26_0.V_source.t26 two_stage_opamp_dummy_magic_26_0.V_tail_gate.t12 GNDA.t199 GNDA.t198 sky130_fd_pr__nfet_01v8 ad=0.5 pd=2.9 as=0.5 ps=2.9 w=2.5 l=0.15
X5 VDDA.t408 two_stage_opamp_dummy_magic_26_0.Y.t25 VOUT+.t17 VDDA.t407 sky130_fd_pr__pfet_01v8 ad=1.2 pd=6.4 as=1.2 ps=6.4 w=6 l=0.15
X6 VOUT-.t20 two_stage_opamp_dummy_magic_26_0.cap_res_X.t137 sky130_fd_pr__cap_mim_m3_1 l=2 w=2
X7 two_stage_opamp_dummy_magic_26_0.Y.t5 two_stage_opamp_dummy_magic_26_0.Vb2.t11 two_stage_opamp_dummy_magic_26_0.VD4.t19 two_stage_opamp_dummy_magic_26_0.VD4.t18 sky130_fd_pr__pfet_01v8 ad=0.7 pd=3.9 as=0.7 ps=3.9 w=3.5 l=0.2
X8 GNDA.t140 GNDA.t138 two_stage_opamp_dummy_magic_26_0.Vb2.t4 GNDA.t139 sky130_fd_pr__nfet_01v8 ad=0.4 pd=2.8 as=0.2 ps=1.4 w=1 l=0.15
X9 two_stage_opamp_dummy_magic_26_0.X.t1 two_stage_opamp_dummy_magic_26_0.Vb2.t12 two_stage_opamp_dummy_magic_26_0.VD3.t19 two_stage_opamp_dummy_magic_26_0.VD3.t18 sky130_fd_pr__pfet_01v8 ad=0.7 pd=3.9 as=0.7 ps=3.9 w=3.5 l=0.2
X10 VOUT-.t21 two_stage_opamp_dummy_magic_26_0.cap_res_X.t136 sky130_fd_pr__cap_mim_m3_1 l=2 w=2
X11 two_stage_opamp_dummy_magic_26_0.err_amp_mir.t0 GNDA.t136 GNDA.t137 GNDA.t1 sky130_fd_pr__nfet_01v8 ad=0.5 pd=2.9 as=1 ps=5.8 w=2.5 l=0.15
X12 two_stage_opamp_dummy_magic_26_0.X.t9 two_stage_opamp_dummy_magic_26_0.Vb1.t13 two_stage_opamp_dummy_magic_26_0.VD1.t17 GNDA.t255 sky130_fd_pr__nfet_01v8 ad=0.3 pd=1.9 as=0.3 ps=1.9 w=1.5 l=0.15
X13 VOUT-.t22 two_stage_opamp_dummy_magic_26_0.cap_res_X.t135 sky130_fd_pr__cap_mim_m3_1 l=2 w=2
X14 two_stage_opamp_dummy_magic_26_0.V_CMFB_S1.t10 two_stage_opamp_dummy_magic_26_0.X.t25 GNDA.t189 VDDA.t387 sky130_fd_pr__pfet_01v8 ad=0.4 pd=2.4 as=0.4 ps=2.4 w=2 l=0.15
X15 VDDA.t52 bgr_11_0.V_TOP.t14 two_stage_opamp_dummy_magic_26_0.V_err_amp_ref.t4 VDDA.t51 sky130_fd_pr__pfet_01v8 ad=0.6 pd=3.4 as=0.6 ps=3.4 w=3 l=0.5
X16 two_stage_opamp_dummy_magic_26_0.V_CMFB_S1.t9 two_stage_opamp_dummy_magic_26_0.X.t26 GNDA.t188 VDDA.t56 sky130_fd_pr__pfet_01v8 ad=0.4 pd=2.4 as=0.4 ps=2.4 w=2 l=0.15
X17 bgr_11_0.1st_Vout_1.t7 bgr_11_0.cap_res1.t19 sky130_fd_pr__cap_mim_m3_1 l=2 w=2
X18 VOUT+.t20 two_stage_opamp_dummy_magic_26_0.cap_res_Y.t136 sky130_fd_pr__cap_mim_m3_1 l=2 w=2
X19 VOUT-.t23 two_stage_opamp_dummy_magic_26_0.cap_res_X.t134 sky130_fd_pr__cap_mim_m3_1 l=2 w=2
X20 two_stage_opamp_dummy_magic_26_0.Vb2.t8 bgr_11_0.NFET_GATE_10uA.t5 GNDA.t229 GNDA.t228 sky130_fd_pr__nfet_01v8 ad=0.2 pd=1.4 as=0.2 ps=1.4 w=1 l=0.15
X21 bgr_11_0.V_TOP.t15 VDDA.t46 sky130_fd_pr__cap_mim_m3_1 l=2 w=2
X22 two_stage_opamp_dummy_magic_26_0.Vb1.t0 GNDA.t134 GNDA.t135 GNDA.t112 sky130_fd_pr__nfet_01v8 ad=0.3 pd=1.9 as=0.6 ps=3.8 w=1.5 l=0.15
X23 GNDA.t18 bgr_11_0.NFET_GATE_10uA.t6 two_stage_opamp_dummy_magic_26_0.Vb2.t2 GNDA.t17 sky130_fd_pr__nfet_01v8 ad=0.2 pd=1.4 as=0.2 ps=1.4 w=1 l=0.15
X24 two_stage_opamp_dummy_magic_26_0.Y.t13 two_stage_opamp_dummy_magic_26_0.Vb1.t14 two_stage_opamp_dummy_magic_26_0.VD2.t19 GNDA.t67 sky130_fd_pr__nfet_01v8 ad=0.3 pd=1.9 as=0.3 ps=1.9 w=1.5 l=0.15
X25 VOUT-.t24 two_stage_opamp_dummy_magic_26_0.cap_res_X.t133 sky130_fd_pr__cap_mim_m3_1 l=2 w=2
X26 bgr_11_0.START_UP_NFET1.t0 bgr_11_0.START_UP_NFET1 GNDA.t8 GNDA.t7 sky130_fd_pr__nfet_01v8 ad=0.2 pd=1.4 as=0.4 ps=2.8 w=1 l=10
X27 bgr_11_0.1st_Vout_1.t1 bgr_11_0.V_mir1.t13 VDDA.t14 VDDA.t13 sky130_fd_pr__pfet_01v8 ad=0.2 pd=1.4 as=0.2 ps=1.4 w=1 l=0.2
X28 two_stage_opamp_dummy_magic_26_0.VD2.t3 VIN+.t0 two_stage_opamp_dummy_magic_26_0.V_source.t3 GNDA.t20 sky130_fd_pr__nfet_01v8 ad=0.3 pd=1.9 as=0.3 ps=1.9 w=1.5 l=0.15
X29 GNDA.t281 two_stage_opamp_dummy_magic_26_0.V_tail_gate.t13 two_stage_opamp_dummy_magic_26_0.V_source.t25 GNDA.t33 sky130_fd_pr__nfet_01v8 ad=0.5 pd=2.9 as=0.5 ps=2.9 w=2.5 l=0.15
X30 two_stage_opamp_dummy_magic_26_0.V_err_mir_p.t3 two_stage_opamp_dummy_magic_26_0.V_err_gate.t6 VDDA.t3 VDDA.t2 sky130_fd_pr__pfet_01v8 ad=0.5 pd=2.9 as=0.5 ps=2.9 w=2.5 l=0.15
X31 VDDA.t374 VDDA.t372 two_stage_opamp_dummy_magic_26_0.VD4.t35 VDDA.t373 sky130_fd_pr__pfet_01v8 ad=1.4 pd=7.8 as=0.7 ps=3.9 w=3.5 l=0.2
X32 VDDA.t45 two_stage_opamp_dummy_magic_26_0.X.t27 VOUT-.t14 VDDA.t44 sky130_fd_pr__pfet_01v8 ad=1.2 pd=6.4 as=1.2 ps=6.4 w=6 l=0.15
X33 VOUT-.t25 two_stage_opamp_dummy_magic_26_0.cap_res_X.t132 sky130_fd_pr__cap_mim_m3_1 l=2 w=2
X34 bgr_11_0.V_TOP.t16 VDDA.t30 sky130_fd_pr__cap_mim_m3_1 l=2 w=2
X35 VDDA.t206 two_stage_opamp_dummy_magic_26_0.X.t28 VOUT-.t13 VDDA.t205 sky130_fd_pr__pfet_01v8 ad=1.2 pd=6.4 as=1.2 ps=6.4 w=6 l=0.15
X36 VOUT+.t21 two_stage_opamp_dummy_magic_26_0.cap_res_Y.t135 sky130_fd_pr__cap_mim_m3_1 l=2 w=2
X37 two_stage_opamp_dummy_magic_26_0.V_CMFB_S3.t9 two_stage_opamp_dummy_magic_26_0.Y.t26 GNDA.t164 VDDA.t116 sky130_fd_pr__pfet_01v8 ad=0.4 pd=2.4 as=0.4 ps=2.4 w=2 l=0.15
X38 two_stage_opamp_dummy_magic_26_0.V_CMFB_S3.t8 two_stage_opamp_dummy_magic_26_0.Y.t27 GNDA.t266 VDDA.t390 sky130_fd_pr__pfet_01v8 ad=0.4 pd=2.4 as=0.4 ps=2.4 w=2 l=0.15
X39 two_stage_opamp_dummy_magic_26_0.Vb2_2.t8 two_stage_opamp_dummy_magic_26_0.Vb2_2.t6 two_stage_opamp_dummy_magic_26_0.Vb2_2.t8 two_stage_opamp_dummy_magic_26_0.Vb2_2.t7 sky130_fd_pr__pfet_01v8 ad=0.7 pd=3.9 as=0 ps=0 w=3.5 l=0.2
X40 two_stage_opamp_dummy_magic_26_0.VD3.t17 two_stage_opamp_dummy_magic_26_0.Vb2.t13 two_stage_opamp_dummy_magic_26_0.X.t22 two_stage_opamp_dummy_magic_26_0.VD3.t16 sky130_fd_pr__pfet_01v8 ad=0.7 pd=3.9 as=0.7 ps=3.9 w=3.5 l=0.2
X41 two_stage_opamp_dummy_magic_26_0.VD3.t37 two_stage_opamp_dummy_magic_26_0.Vb3.t8 VDDA.t411 VDDA.t410 sky130_fd_pr__pfet_01v8 ad=0.7 pd=3.9 as=0.7 ps=3.9 w=3.5 l=0.2
X42 a_6350_30238.t0 bgr_11_0.Vin+.t1 GNDA.t152 sky130_fd_pr__res_xhigh_po_0p35 l=6
X43 bgr_11_0.V_TOP.t17 VDDA.t188 sky130_fd_pr__cap_mim_m3_1 l=2 w=2
X44 two_stage_opamp_dummy_magic_26_0.V_err_gate.t3 bgr_11_0.NFET_GATE_10uA.t7 GNDA.t233 GNDA.t232 sky130_fd_pr__nfet_01v8 ad=0.2 pd=1.4 as=0.2 ps=1.4 w=1 l=0.15
X45 VOUT+.t22 two_stage_opamp_dummy_magic_26_0.cap_res_Y.t134 sky130_fd_pr__cap_mim_m3_1 l=2 w=2
X46 VOUT-.t26 two_stage_opamp_dummy_magic_26_0.cap_res_X.t131 sky130_fd_pr__cap_mim_m3_1 l=2 w=2
X47 VOUT-.t27 two_stage_opamp_dummy_magic_26_0.cap_res_X.t130 sky130_fd_pr__cap_mim_m3_1 l=2 w=2
X48 VDDA.t196 a_6540_22450.t11 a_6540_22450.t12 VDDA.t195 sky130_fd_pr__pfet_01v8 ad=0.2 pd=1.4 as=0.2 ps=1.4 w=1 l=0.2
X49 VOUT-.t28 two_stage_opamp_dummy_magic_26_0.cap_res_X.t129 sky130_fd_pr__cap_mim_m3_1 l=2 w=2
X50 VOUT-.t29 two_stage_opamp_dummy_magic_26_0.cap_res_X.t128 sky130_fd_pr__cap_mim_m3_1 l=2 w=2
X51 VOUT-.t30 two_stage_opamp_dummy_magic_26_0.cap_res_X.t127 sky130_fd_pr__cap_mim_m3_1 l=2 w=2
X52 VDDA.t204 bgr_11_0.V_mir1.t11 bgr_11_0.V_mir1.t12 VDDA.t203 sky130_fd_pr__pfet_01v8 ad=0.2 pd=1.4 as=0.2 ps=1.4 w=1 l=0.2
X53 two_stage_opamp_dummy_magic_26_0.Y.t1 two_stage_opamp_dummy_magic_26_0.Vb2.t14 two_stage_opamp_dummy_magic_26_0.VD4.t17 two_stage_opamp_dummy_magic_26_0.VD4.t16 sky130_fd_pr__pfet_01v8 ad=0.7 pd=3.9 as=0.7 ps=3.9 w=3.5 l=0.2
X54 VOUT+.t23 two_stage_opamp_dummy_magic_26_0.cap_res_Y.t133 sky130_fd_pr__cap_mim_m3_1 l=2 w=2
X55 VOUT+.t24 two_stage_opamp_dummy_magic_26_0.cap_res_Y.t132 sky130_fd_pr__cap_mim_m3_1 l=2 w=2
X56 two_stage_opamp_dummy_magic_26_0.V_CMFB_S3.t14 bgr_11_0.PFET_GATE_10uA.t10 VDDA.t257 VDDA.t256 sky130_fd_pr__pfet_01v8 ad=0.2 pd=1.4 as=0.2 ps=1.4 w=1 l=0.15
X57 VOUT+.t25 two_stage_opamp_dummy_magic_26_0.cap_res_Y.t131 sky130_fd_pr__cap_mim_m3_1 l=2 w=2
X58 VDDA.t255 bgr_11_0.PFET_GATE_10uA.t11 two_stage_opamp_dummy_magic_26_0.V_CMFB_S3.t13 VDDA.t254 sky130_fd_pr__pfet_01v8 ad=0.2 pd=1.4 as=0.2 ps=1.4 w=1 l=0.15
X59 bgr_11_0.V_TOP.t18 VDDA.t57 sky130_fd_pr__cap_mim_m3_1 l=2 w=2
X60 bgr_11_0.cap_res1.t20 bgr_11_0.V_TOP.t12 GNDA.t278 sky130_fd_pr__res_high_po_0p35 l=2.05
X61 VDDA.t39 two_stage_opamp_dummy_magic_26_0.Y.t28 VOUT+.t2 VDDA.t38 sky130_fd_pr__pfet_01v8 ad=1.2 pd=6.4 as=1.2 ps=6.4 w=6 l=0.15
X62 VDDA.t74 two_stage_opamp_dummy_magic_26_0.Y.t29 VOUT+.t4 VDDA.t73 sky130_fd_pr__pfet_01v8 ad=1.2 pd=6.4 as=1.2 ps=6.4 w=6 l=0.15
X63 VOUT+.t26 two_stage_opamp_dummy_magic_26_0.cap_res_Y.t130 sky130_fd_pr__cap_mim_m3_1 l=2 w=2
X64 GNDA.t236 two_stage_opamp_dummy_magic_26_0.V_b_2nd_stage.t2 VOUT-.t15 GNDA.t235 sky130_fd_pr__nfet_01v8 ad=1.4 pd=7.4 as=1.4 ps=7.4 w=7 l=0.6
X65 VOUT-.t31 two_stage_opamp_dummy_magic_26_0.cap_res_X.t126 sky130_fd_pr__cap_mim_m3_1 l=2 w=2
X66 VOUT-.t32 two_stage_opamp_dummy_magic_26_0.cap_res_X.t125 sky130_fd_pr__cap_mim_m3_1 l=2 w=2
X67 bgr_11_0.V_TOP.t19 VDDA.t53 sky130_fd_pr__cap_mim_m3_1 l=2 w=2
X68 two_stage_opamp_dummy_magic_26_0.V_CMFB_S1.t8 two_stage_opamp_dummy_magic_26_0.X.t29 GNDA.t185 VDDA.t22 sky130_fd_pr__pfet_01v8 ad=0.4 pd=2.4 as=0.4 ps=2.4 w=2 l=0.15
X69 VOUT-.t33 two_stage_opamp_dummy_magic_26_0.cap_res_X.t124 sky130_fd_pr__cap_mim_m3_1 l=2 w=2
X70 VOUT-.t34 two_stage_opamp_dummy_magic_26_0.cap_res_X.t123 sky130_fd_pr__cap_mim_m3_1 l=2 w=2
X71 bgr_11_0.1st_Vout_2.t8 bgr_11_0.cap_res2.t20 sky130_fd_pr__cap_mim_m3_1 l=2 w=2
X72 VOUT+.t27 two_stage_opamp_dummy_magic_26_0.cap_res_Y.t129 sky130_fd_pr__cap_mim_m3_1 l=2 w=2
X73 GNDA.t45 GNDA.t91 bgr_11_0.sky130_fd_pr__rf_pnp_05v5_W3p40L3p40_25.Emitter.t8 sky130_fd_pr__pnp_05v5_W3p40L3p40
**devattr s=462400,2720
X74 VOUT+.t28 two_stage_opamp_dummy_magic_26_0.cap_res_Y.t128 sky130_fd_pr__cap_mim_m3_1 l=2 w=2
X75 two_stage_opamp_dummy_magic_26_0.Y.t9 two_stage_opamp_dummy_magic_26_0.Vb2.t15 two_stage_opamp_dummy_magic_26_0.VD4.t15 two_stage_opamp_dummy_magic_26_0.VD4.t14 sky130_fd_pr__pfet_01v8 ad=0.7 pd=3.9 as=0.7 ps=3.9 w=3.5 l=0.2
X76 two_stage_opamp_dummy_magic_26_0.Y.t11 two_stage_opamp_dummy_magic_26_0.Vb1.t15 two_stage_opamp_dummy_magic_26_0.VD2.t18 GNDA.t14 sky130_fd_pr__nfet_01v8 ad=0.3 pd=1.9 as=0.3 ps=1.9 w=1.5 l=0.15
X77 VOUT+.t29 two_stage_opamp_dummy_magic_26_0.cap_res_Y.t127 sky130_fd_pr__cap_mim_m3_1 l=2 w=2
X78 VOUT+.t30 two_stage_opamp_dummy_magic_26_0.cap_res_Y.t126 sky130_fd_pr__cap_mim_m3_1 l=2 w=2
X79 two_stage_opamp_dummy_magic_26_0.Y.t19 two_stage_opamp_dummy_magic_26_0.Vb1.t16 two_stage_opamp_dummy_magic_26_0.VD2.t17 GNDA.t67 sky130_fd_pr__nfet_01v8 ad=0.3 pd=1.9 as=0.3 ps=1.9 w=1.5 l=0.15
X80 VDDA.t138 two_stage_opamp_dummy_magic_26_0.Y.t30 two_stage_opamp_dummy_magic_26_0.V_CMFB_S4.t9 GNDA.t203 sky130_fd_pr__nfet_01v8 ad=0.6 pd=3.4 as=0.6 ps=3.4 w=3 l=0.15
X81 VDDA.t217 bgr_11_0.1st_Vout_2.t9 bgr_11_0.PFET_GATE_10uA.t8 VDDA.t216 sky130_fd_pr__pfet_01v8 ad=0.2 pd=1.4 as=0.2 ps=1.4 w=1 l=0.2
X82 VOUT-.t35 two_stage_opamp_dummy_magic_26_0.cap_res_X.t122 sky130_fd_pr__cap_mim_m3_1 l=2 w=2
X83 two_stage_opamp_dummy_magic_26_0.VD2.t9 VIN+.t1 two_stage_opamp_dummy_magic_26_0.V_source.t34 GNDA.t234 sky130_fd_pr__nfet_01v8 ad=0.3 pd=1.9 as=0.3 ps=1.9 w=1.5 l=0.15
X84 bgr_11_0.1st_Vout_2.t10 bgr_11_0.cap_res2.t19 sky130_fd_pr__cap_mim_m3_1 l=2 w=2
X85 GNDA.t273 two_stage_opamp_dummy_magic_26_0.V_tail_gate.t14 two_stage_opamp_dummy_magic_26_0.V_source.t24 GNDA.t33 sky130_fd_pr__nfet_01v8 ad=0.5 pd=2.9 as=0.5 ps=2.9 w=2.5 l=0.15
X86 two_stage_opamp_dummy_magic_26_0.V_tail_gate.t10 bgr_11_0.PFET_GATE_10uA.t12 VDDA.t253 VDDA.t252 sky130_fd_pr__pfet_01v8 ad=0.2 pd=1.4 as=0.2 ps=1.4 w=1 l=0.15
X87 two_stage_opamp_dummy_magic_26_0.VD3.t15 two_stage_opamp_dummy_magic_26_0.Vb2.t16 two_stage_opamp_dummy_magic_26_0.X.t8 two_stage_opamp_dummy_magic_26_0.VD3.t14 sky130_fd_pr__pfet_01v8 ad=0.7 pd=3.9 as=0.7 ps=3.9 w=3.5 l=0.2
X88 VOUT+.t31 two_stage_opamp_dummy_magic_26_0.cap_res_Y.t125 sky130_fd_pr__cap_mim_m3_1 l=2 w=2
X89 VOUT-.t36 two_stage_opamp_dummy_magic_26_0.cap_res_X.t121 sky130_fd_pr__cap_mim_m3_1 l=2 w=2
X90 bgr_11_0.sky130_fd_pr__rf_pnp_05v5_W3p40L3p40_25.Emitter.t0 bgr_11_0.Vin+.t0 GNDA.t6 sky130_fd_pr__res_xhigh_po_0p35 l=2.3
X91 VDDA.t176 two_stage_opamp_dummy_magic_26_0.X.t30 VOUT-.t12 VDDA.t175 sky130_fd_pr__pfet_01v8 ad=1.2 pd=6.4 as=1.2 ps=6.4 w=6 l=0.15
X92 VOUT-.t37 two_stage_opamp_dummy_magic_26_0.cap_res_X.t120 sky130_fd_pr__cap_mim_m3_1 l=2 w=2
X93 VOUT-.t38 two_stage_opamp_dummy_magic_26_0.cap_res_X.t119 sky130_fd_pr__cap_mim_m3_1 l=2 w=2
X94 VOUT+.t32 two_stage_opamp_dummy_magic_26_0.cap_res_Y.t124 sky130_fd_pr__cap_mim_m3_1 l=2 w=2
X95 bgr_11_0.1st_Vout_1.t8 bgr_11_0.cap_res1.t18 sky130_fd_pr__cap_mim_m3_1 l=2 w=2
X96 VOUT-.t39 two_stage_opamp_dummy_magic_26_0.cap_res_X.t118 sky130_fd_pr__cap_mim_m3_1 l=2 w=2
X97 VOUT-.t40 two_stage_opamp_dummy_magic_26_0.cap_res_X.t117 sky130_fd_pr__cap_mim_m3_1 l=2 w=2
X98 bgr_11_0.1st_Vout_2.t11 bgr_11_0.cap_res2.t18 sky130_fd_pr__cap_mim_m3_1 l=2 w=2
X99 VOUT-.t41 two_stage_opamp_dummy_magic_26_0.cap_res_X.t116 sky130_fd_pr__cap_mim_m3_1 l=2 w=2
X100 bgr_11_0.V_TOP.t20 VDDA.t414 sky130_fd_pr__cap_mim_m3_1 l=2 w=2
X101 two_stage_opamp_dummy_magic_26_0.V_CMFB_S3.t7 two_stage_opamp_dummy_magic_26_0.Y.t31 GNDA.t196 VDDA.t132 sky130_fd_pr__pfet_01v8 ad=0.4 pd=2.4 as=0.4 ps=2.4 w=2 l=0.15
X102 GNDA.t98 GNDA.t96 GNDA.t98 GNDA.t97 sky130_fd_pr__nfet_01v8 ad=0.5 pd=2.9 as=0 ps=0 w=2.5 l=0.15
X103 VDDA.t251 bgr_11_0.PFET_GATE_10uA.t13 two_stage_opamp_dummy_magic_26_0.V_CMFB_S1.t14 VDDA.t250 sky130_fd_pr__pfet_01v8 ad=0.2 pd=1.4 as=0.2 ps=1.4 w=1 l=0.15
X104 VOUT+.t33 two_stage_opamp_dummy_magic_26_0.cap_res_Y.t123 sky130_fd_pr__cap_mim_m3_1 l=2 w=2
X105 VOUT+.t34 two_stage_opamp_dummy_magic_26_0.cap_res_Y.t122 sky130_fd_pr__cap_mim_m3_1 l=2 w=2
X106 two_stage_opamp_dummy_magic_26_0.V_CMFB_S1.t16 VDDA.t359 VDDA.t361 VDDA.t360 sky130_fd_pr__pfet_01v8 ad=0.2 pd=1.4 as=0.4 ps=2.8 w=1 l=0.15
X107 VDDA.t69 a_6540_22450.t13 bgr_11_0.1st_Vout_2.t1 VDDA.t68 sky130_fd_pr__pfet_01v8 ad=0.2 pd=1.4 as=0.2 ps=1.4 w=1 l=0.2
X108 VOUT+.t35 two_stage_opamp_dummy_magic_26_0.cap_res_Y.t121 sky130_fd_pr__cap_mim_m3_1 l=2 w=2
X109 VOUT+.t36 two_stage_opamp_dummy_magic_26_0.cap_res_Y.t120 sky130_fd_pr__cap_mim_m3_1 l=2 w=2
X110 VOUT-.t42 two_stage_opamp_dummy_magic_26_0.cap_res_X.t115 sky130_fd_pr__cap_mim_m3_1 l=2 w=2
X111 VDDA.t61 bgr_11_0.V_TOP.t21 two_stage_opamp_dummy_magic_26_0.V_err_amp_ref.t3 VDDA.t60 sky130_fd_pr__pfet_01v8 ad=0.6 pd=3.4 as=0.6 ps=3.4 w=3 l=0.5
X112 VOUT+.t37 two_stage_opamp_dummy_magic_26_0.cap_res_Y.t119 sky130_fd_pr__cap_mim_m3_1 l=2 w=2
X113 VOUT-.t43 two_stage_opamp_dummy_magic_26_0.cap_res_X.t114 sky130_fd_pr__cap_mim_m3_1 l=2 w=2
X114 VDDA.t83 two_stage_opamp_dummy_magic_26_0.X.t31 two_stage_opamp_dummy_magic_26_0.V_CMFB_S2.t14 GNDA.t187 sky130_fd_pr__nfet_01v8 ad=0.6 pd=3.4 as=0.6 ps=3.4 w=3 l=0.15
X115 VOUT+.t38 two_stage_opamp_dummy_magic_26_0.cap_res_Y.t118 sky130_fd_pr__cap_mim_m3_1 l=2 w=2
X116 two_stage_opamp_dummy_magic_26_0.VD3.t13 two_stage_opamp_dummy_magic_26_0.Vb2.t17 two_stage_opamp_dummy_magic_26_0.X.t6 two_stage_opamp_dummy_magic_26_0.VD3.t12 sky130_fd_pr__pfet_01v8 ad=0.7 pd=3.9 as=0.7 ps=3.9 w=3.5 l=0.2
X117 VOUT-.t44 two_stage_opamp_dummy_magic_26_0.cap_res_X.t113 sky130_fd_pr__cap_mim_m3_1 l=2 w=2
X118 VOUT+.t39 two_stage_opamp_dummy_magic_26_0.cap_res_Y.t117 sky130_fd_pr__cap_mim_m3_1 l=2 w=2
X119 VOUT+.t40 two_stage_opamp_dummy_magic_26_0.cap_res_Y.t116 sky130_fd_pr__cap_mim_m3_1 l=2 w=2
X120 VDDA.t174 two_stage_opamp_dummy_magic_26_0.Y.t32 VOUT+.t12 VDDA.t173 sky130_fd_pr__pfet_01v8 ad=1.2 pd=6.4 as=1.2 ps=6.4 w=6 l=0.15
X121 VOUT-.t45 two_stage_opamp_dummy_magic_26_0.cap_res_X.t112 sky130_fd_pr__cap_mim_m3_1 l=2 w=2
X122 VOUT-.t46 two_stage_opamp_dummy_magic_26_0.cap_res_X.t111 sky130_fd_pr__cap_mim_m3_1 l=2 w=2
X123 bgr_11_0.1st_Vout_2.t12 bgr_11_0.cap_res2.t17 sky130_fd_pr__cap_mim_m3_1 l=2 w=2
X124 bgr_11_0.V_TOP.t22 VDDA.t55 sky130_fd_pr__cap_mim_m3_1 l=2 w=2
X125 two_stage_opamp_dummy_magic_26_0.Vb1.t5 two_stage_opamp_dummy_magic_26_0.Vb1.t4 two_stage_opamp_dummy_magic_26_0.Vb1_2.t4 GNDA.t112 sky130_fd_pr__nfet_01v8 ad=0.3 pd=1.9 as=0.3 ps=1.9 w=1.5 l=0.15
X126 VOUT+.t41 two_stage_opamp_dummy_magic_26_0.cap_res_Y.t115 sky130_fd_pr__cap_mim_m3_1 l=2 w=2
X127 VOUT+.t42 two_stage_opamp_dummy_magic_26_0.cap_res_Y.t114 sky130_fd_pr__cap_mim_m3_1 l=2 w=2
X128 VOUT-.t47 two_stage_opamp_dummy_magic_26_0.cap_res_X.t110 sky130_fd_pr__cap_mim_m3_1 l=2 w=2
X129 VOUT+.t43 two_stage_opamp_dummy_magic_26_0.cap_res_Y.t113 sky130_fd_pr__cap_mim_m3_1 l=2 w=2
X130 two_stage_opamp_dummy_magic_26_0.V_err_amp_ref.t6 VDDA.t369 VDDA.t371 VDDA.t370 sky130_fd_pr__pfet_01v8 ad=0.6 pd=3.4 as=1.2 ps=6.8 w=3 l=0.5
X131 two_stage_opamp_dummy_magic_26_0.VD4.t32 two_stage_opamp_dummy_magic_26_0.Vb3.t9 VDDA.t192 VDDA.t191 sky130_fd_pr__pfet_01v8 ad=0.7 pd=3.9 as=0.7 ps=3.9 w=3.5 l=0.2
X132 two_stage_opamp_dummy_magic_26_0.V_CMFB_S1.t7 two_stage_opamp_dummy_magic_26_0.X.t32 GNDA.t186 VDDA.t207 sky130_fd_pr__pfet_01v8 ad=0.4 pd=2.4 as=0.4 ps=2.4 w=2 l=0.15
X133 two_stage_opamp_dummy_magic_26_0.VD1.t7 VIN-.t0 two_stage_opamp_dummy_magic_26_0.V_source.t29 GNDA.t211 sky130_fd_pr__nfet_01v8 ad=0.3 pd=1.9 as=0.3 ps=1.9 w=1.5 l=0.15
X134 two_stage_opamp_dummy_magic_26_0.Y.t18 two_stage_opamp_dummy_magic_26_0.Vb1.t17 two_stage_opamp_dummy_magic_26_0.VD2.t16 GNDA.t20 sky130_fd_pr__nfet_01v8 ad=0.3 pd=1.9 as=0.3 ps=1.9 w=1.5 l=0.15
X135 GNDA.t218 bgr_11_0.NFET_GATE_10uA.t8 two_stage_opamp_dummy_magic_26_0.Vb3.t6 GNDA.t217 sky130_fd_pr__nfet_01v8 ad=0.2 pd=1.4 as=0.2 ps=1.4 w=1 l=0.15
X136 two_stage_opamp_dummy_magic_26_0.Vb2_Vb3.t9 two_stage_opamp_dummy_magic_26_0.Vb2_Vb3.t6 two_stage_opamp_dummy_magic_26_0.Vb2_Vb3.t8 two_stage_opamp_dummy_magic_26_0.Vb2_Vb3.t7 sky130_fd_pr__pfet_01v8 ad=1.4 pd=7.8 as=0 ps=0 w=3.5 l=0.2
X137 VOUT+.t44 two_stage_opamp_dummy_magic_26_0.cap_res_Y.t112 sky130_fd_pr__cap_mim_m3_1 l=2 w=2
X138 VDDA.t158 a_6540_22450.t9 a_6540_22450.t10 VDDA.t157 sky130_fd_pr__pfet_01v8 ad=0.2 pd=1.4 as=0.2 ps=1.4 w=1 l=0.2
X139 VDDA.t147 two_stage_opamp_dummy_magic_26_0.Y.t33 two_stage_opamp_dummy_magic_26_0.V_CMFB_S4.t8 GNDA.t209 sky130_fd_pr__nfet_01v8 ad=0.6 pd=3.4 as=0.6 ps=3.4 w=3 l=0.15
X140 bgr_11_0.START_UP.t5 bgr_11_0.V_TOP.t23 VDDA.t194 VDDA.t193 sky130_fd_pr__pfet_01v8 ad=0.6 pd=3.4 as=0.6 ps=3.4 w=3 l=0.5
X141 two_stage_opamp_dummy_magic_26_0.cap_res_Y.t138 two_stage_opamp_dummy_magic_26_0.Y.t24 GNDA.t289 sky130_fd_pr__res_high_po_1p41 l=1.41
X142 VOUT-.t48 two_stage_opamp_dummy_magic_26_0.cap_res_X.t109 sky130_fd_pr__cap_mim_m3_1 l=2 w=2
X143 VOUT-.t49 two_stage_opamp_dummy_magic_26_0.cap_res_X.t108 sky130_fd_pr__cap_mim_m3_1 l=2 w=2
X144 GNDA.t151 two_stage_opamp_dummy_magic_26_0.V_tail_gate.t15 two_stage_opamp_dummy_magic_26_0.V_p_mir.t2 GNDA.t150 sky130_fd_pr__nfet_01v8 ad=0.5 pd=2.9 as=0.5 ps=2.9 w=2.5 l=0.15
X145 VOUT-.t50 two_stage_opamp_dummy_magic_26_0.cap_res_X.t107 sky130_fd_pr__cap_mim_m3_1 l=2 w=2
X146 VOUT+.t45 two_stage_opamp_dummy_magic_26_0.cap_res_Y.t111 sky130_fd_pr__cap_mim_m3_1 l=2 w=2
X147 two_stage_opamp_dummy_magic_26_0.VD2.t6 GNDA.t132 GNDA.t133 GNDA.t104 sky130_fd_pr__nfet_01v8 ad=0.3 pd=1.9 as=0.6 ps=3.8 w=1.5 l=0.15
X148 VOUT+.t46 two_stage_opamp_dummy_magic_26_0.cap_res_Y.t110 sky130_fd_pr__cap_mim_m3_1 l=2 w=2
X149 a_11420_30238.t1 bgr_11_0.Vin-.t7 GNDA.t288 sky130_fd_pr__res_xhigh_po_0p35 l=6
X150 bgr_11_0.V_TOP.t10 VDDA.t366 VDDA.t368 VDDA.t367 sky130_fd_pr__pfet_01v8 ad=0.2 pd=1.4 as=0.45 ps=2.9 w=1 l=0.15
X151 GNDA.t272 two_stage_opamp_dummy_magic_26_0.V_tail_gate.t16 two_stage_opamp_dummy_magic_26_0.V_source.t23 GNDA.t33 sky130_fd_pr__nfet_01v8 ad=0.5 pd=2.9 as=0.5 ps=2.9 w=2.5 l=0.15
X152 GNDA.t283 a_11950_28880.t0 GNDA.t282 sky130_fd_pr__res_xhigh_po_0p35 l=4
X153 GNDA.t100 GNDA.t99 two_stage_opamp_dummy_magic_26_0.V_tail_gate.t1 GNDA.t3 sky130_fd_pr__nfet_01v8 ad=0.6 pd=3.8 as=0.3 ps=1.9 w=1.5 l=0.15
X154 two_stage_opamp_dummy_magic_26_0.VD1.t2 VIN-.t1 two_stage_opamp_dummy_magic_26_0.V_source.t6 GNDA.t3 sky130_fd_pr__nfet_01v8 ad=0.3 pd=1.9 as=0.3 ps=1.9 w=1.5 l=0.15
X155 VOUT+.t47 two_stage_opamp_dummy_magic_26_0.cap_res_Y.t109 sky130_fd_pr__cap_mim_m3_1 l=2 w=2
X156 a_3810_3908.t0 two_stage_opamp_dummy_magic_26_0.V_tot.t3 GNDA.t200 sky130_fd_pr__res_xhigh_po_0p35 l=1.75
X157 VOUT+.t48 two_stage_opamp_dummy_magic_26_0.cap_res_Y.t108 sky130_fd_pr__cap_mim_m3_1 l=2 w=2
X158 bgr_11_0.V_TOP.t24 VDDA.t42 sky130_fd_pr__cap_mim_m3_1 l=2 w=2
X159 VDDA.t90 two_stage_opamp_dummy_magic_26_0.X.t33 VOUT-.t11 VDDA.t89 sky130_fd_pr__pfet_01v8 ad=1.2 pd=6.4 as=1.2 ps=6.4 w=6 l=0.15
X160 a_13840_3908.t1 two_stage_opamp_dummy_magic_26_0.V_CMFB_S2.t1 GNDA.t147 sky130_fd_pr__res_xhigh_po_0p35 l=1.75
X161 VOUT-.t51 two_stage_opamp_dummy_magic_26_0.cap_res_X.t106 sky130_fd_pr__cap_mim_m3_1 l=2 w=2
X162 VOUT+.t49 two_stage_opamp_dummy_magic_26_0.cap_res_Y.t107 sky130_fd_pr__cap_mim_m3_1 l=2 w=2
X163 VDDA.t180 two_stage_opamp_dummy_magic_26_0.Vb3.t10 two_stage_opamp_dummy_magic_26_0.VD3.t34 VDDA.t179 sky130_fd_pr__pfet_01v8 ad=0.7 pd=3.9 as=0.7 ps=3.9 w=3.5 l=0.2
X164 VOUT+.t50 two_stage_opamp_dummy_magic_26_0.cap_res_Y.t106 sky130_fd_pr__cap_mim_m3_1 l=2 w=2
X165 VOUT+.t51 two_stage_opamp_dummy_magic_26_0.cap_res_Y.t105 sky130_fd_pr__cap_mim_m3_1 l=2 w=2
X166 bgr_11_0.Vin+.t5 bgr_11_0.V_TOP.t25 VDDA.t150 VDDA.t149 sky130_fd_pr__pfet_01v8 ad=0.6 pd=3.4 as=0.6 ps=3.4 w=3 l=0.5
X167 VOUT+.t52 two_stage_opamp_dummy_magic_26_0.cap_res_Y.t104 sky130_fd_pr__cap_mim_m3_1 l=2 w=2
X168 VOUT+.t53 two_stage_opamp_dummy_magic_26_0.cap_res_Y.t103 sky130_fd_pr__cap_mim_m3_1 l=2 w=2
X169 VOUT+.t54 two_stage_opamp_dummy_magic_26_0.cap_res_Y.t102 sky130_fd_pr__cap_mim_m3_1 l=2 w=2
X170 VDDA.t48 bgr_11_0.V_mir1.t14 bgr_11_0.1st_Vout_1.t2 VDDA.t47 sky130_fd_pr__pfet_01v8 ad=0.2 pd=1.4 as=0.2 ps=1.4 w=1 l=0.2
X171 two_stage_opamp_dummy_magic_26_0.V_CMFB_S3.t6 two_stage_opamp_dummy_magic_26_0.Y.t34 GNDA.t11 VDDA.t37 sky130_fd_pr__pfet_01v8 ad=0.4 pd=2.4 as=0.4 ps=2.4 w=2 l=0.15
X172 two_stage_opamp_dummy_magic_26_0.V_source.t31 two_stage_opamp_dummy_magic_26_0.err_amp_out.t4 GNDA.t221 GNDA.t220 sky130_fd_pr__nfet_01v8 ad=0.5 pd=2.9 as=0.5 ps=2.9 w=2.5 l=0.15
X173 GNDA.t131 GNDA.t129 VOUT+.t6 GNDA.t130 sky130_fd_pr__nfet_01v8 ad=2.8 pd=14.8 as=1.4 ps=7.4 w=7 l=0.6
X174 VOUT-.t52 two_stage_opamp_dummy_magic_26_0.cap_res_X.t105 sky130_fd_pr__cap_mim_m3_1 l=2 w=2
X175 VOUT+.t55 two_stage_opamp_dummy_magic_26_0.cap_res_Y.t101 sky130_fd_pr__cap_mim_m3_1 l=2 w=2
X176 VOUT-.t53 two_stage_opamp_dummy_magic_26_0.cap_res_X.t104 sky130_fd_pr__cap_mim_m3_1 l=2 w=2
X177 bgr_11_0.1st_Vout_2.t13 bgr_11_0.cap_res2.t16 sky130_fd_pr__cap_mim_m3_1 l=2 w=2
X178 VDDA.t365 VDDA.t362 VDDA.t364 VDDA.t363 sky130_fd_pr__pfet_01v8 ad=0.8 pd=4.8 as=0 ps=0 w=2 l=0.15
X179 VDDA.t358 VDDA.t355 VDDA.t357 VDDA.t356 sky130_fd_pr__pfet_01v8 ad=0.4 pd=2.8 as=0 ps=0 w=1 l=0.15
X180 VOUT-.t54 two_stage_opamp_dummy_magic_26_0.cap_res_X.t103 sky130_fd_pr__cap_mim_m3_1 l=2 w=2
X181 VOUT-.t55 two_stage_opamp_dummy_magic_26_0.cap_res_X.t102 sky130_fd_pr__cap_mim_m3_1 l=2 w=2
X182 VDDA.t249 bgr_11_0.PFET_GATE_10uA.t14 two_stage_opamp_dummy_magic_26_0.V_tail_gate.t9 VDDA.t248 sky130_fd_pr__pfet_01v8 ad=0.2 pd=1.4 as=0.2 ps=1.4 w=1 l=0.15
X183 VOUT-.t4 two_stage_opamp_dummy_magic_26_0.V_b_2nd_stage.t3 GNDA.t159 GNDA.t158 sky130_fd_pr__nfet_01v8 ad=1.4 pd=7.4 as=1.4 ps=7.4 w=7 l=0.6
X184 VOUT+.t56 two_stage_opamp_dummy_magic_26_0.cap_res_Y.t100 sky130_fd_pr__cap_mim_m3_1 l=2 w=2
X185 VDDA.t382 two_stage_opamp_dummy_magic_26_0.X.t34 two_stage_opamp_dummy_magic_26_0.V_CMFB_S2.t13 GNDA.t184 sky130_fd_pr__nfet_01v8 ad=0.6 pd=3.4 as=0.6 ps=3.4 w=3 l=0.15
X186 VOUT-.t56 two_stage_opamp_dummy_magic_26_0.cap_res_X.t101 sky130_fd_pr__cap_mim_m3_1 l=2 w=2
X187 two_stage_opamp_dummy_magic_26_0.V_CMFB_S4.t14 bgr_11_0.NFET_GATE_10uA.t9 GNDA.t161 GNDA.t160 sky130_fd_pr__nfet_01v8 ad=0.2 pd=1.4 as=0.2 ps=1.4 w=1 l=0.15
X188 VDDA.t106 two_stage_opamp_dummy_magic_26_0.X.t35 two_stage_opamp_dummy_magic_26_0.V_CMFB_S2.t12 GNDA.t183 sky130_fd_pr__nfet_01v8 ad=0.6 pd=3.4 as=0.6 ps=3.4 w=3 l=0.15
X189 VOUT+.t57 two_stage_opamp_dummy_magic_26_0.cap_res_Y.t99 sky130_fd_pr__cap_mim_m3_1 l=2 w=2
X190 VOUT-.t57 two_stage_opamp_dummy_magic_26_0.cap_res_X.t100 sky130_fd_pr__cap_mim_m3_1 l=2 w=2
X191 VOUT+.t58 two_stage_opamp_dummy_magic_26_0.cap_res_Y.t98 sky130_fd_pr__cap_mim_m3_1 l=2 w=2
X192 two_stage_opamp_dummy_magic_26_0.Vb2.t6 bgr_11_0.NFET_GATE_10uA.t10 GNDA.t213 GNDA.t212 sky130_fd_pr__nfet_01v8 ad=0.2 pd=1.4 as=0.2 ps=1.4 w=1 l=0.15
X193 VDDA.t8 bgr_11_0.V_TOP.t26 bgr_11_0.Vin-.t6 VDDA.t7 sky130_fd_pr__pfet_01v8 ad=0.6 pd=3.4 as=0.6 ps=3.4 w=3 l=0.5
X194 VDDA.t354 VDDA.t352 bgr_11_0.V_TOP.t9 VDDA.t353 sky130_fd_pr__pfet_01v8 ad=0.4 pd=2.8 as=0.2 ps=1.4 w=1 l=0.2
X195 VDDA.t146 two_stage_opamp_dummy_magic_26_0.Y.t35 VOUT+.t10 VDDA.t145 sky130_fd_pr__pfet_01v8 ad=1.2 pd=6.4 as=1.2 ps=6.4 w=6 l=0.15
X196 VOUT-.t58 two_stage_opamp_dummy_magic_26_0.cap_res_X.t99 sky130_fd_pr__cap_mim_m3_1 l=2 w=2
X197 GNDA.t45 GNDA.t44 bgr_11_0.sky130_fd_pr__rf_pnp_05v5_W3p40L3p40_25.Emitter.t7 sky130_fd_pr__pnp_05v5_W3p40L3p40
**devattr s=462400,2720
X198 VOUT+.t59 two_stage_opamp_dummy_magic_26_0.cap_res_Y.t97 sky130_fd_pr__cap_mim_m3_1 l=2 w=2
X199 GNDA.t113 GNDA.t111 two_stage_opamp_dummy_magic_26_0.Vb1.t1 GNDA.t112 sky130_fd_pr__nfet_01v8 ad=0.6 pd=3.8 as=0.3 ps=1.9 w=1.5 l=0.15
X200 two_stage_opamp_dummy_magic_26_0.err_amp_out.t2 two_stage_opamp_dummy_magic_26_0.err_amp_mir.t5 GNDA.t216 GNDA.t1 sky130_fd_pr__nfet_01v8 ad=0.5 pd=2.9 as=0.5 ps=2.9 w=2.5 l=0.15
X201 GNDA.t270 two_stage_opamp_dummy_magic_26_0.Y.t36 two_stage_opamp_dummy_magic_26_0.V_CMFB_S3.t5 VDDA.t401 sky130_fd_pr__pfet_01v8 ad=0.4 pd=2.4 as=0.4 ps=2.4 w=2 l=0.15
X202 two_stage_opamp_dummy_magic_26_0.VD4.t29 two_stage_opamp_dummy_magic_26_0.VD4.t27 two_stage_opamp_dummy_magic_26_0.Y.t6 two_stage_opamp_dummy_magic_26_0.VD4.t28 sky130_fd_pr__pfet_01v8 ad=1.4 pd=7.8 as=0.7 ps=3.9 w=3.5 l=0.2
X203 two_stage_opamp_dummy_magic_26_0.V_CMFB_S1.t6 two_stage_opamp_dummy_magic_26_0.X.t36 GNDA.t182 VDDA.t98 sky130_fd_pr__pfet_01v8 ad=0.4 pd=2.4 as=0.4 ps=2.4 w=2 l=0.15
X204 bgr_11_0.1st_Vout_1.t9 bgr_11_0.cap_res1.t17 sky130_fd_pr__cap_mim_m3_1 l=2 w=2
X205 GNDA.t45 GNDA.t128 bgr_11_0.sky130_fd_pr__rf_pnp_05v5_W3p40L3p40_25.Emitter.t6 sky130_fd_pr__pnp_05v5_W3p40L3p40
**devattr s=462400,2720
X206 VDDA.t190 bgr_11_0.1st_Vout_1.t10 bgr_11_0.V_TOP.t5 VDDA.t189 sky130_fd_pr__pfet_01v8 ad=0.2 pd=1.4 as=0.2 ps=1.4 w=1 l=0.2
X207 VOUT-.t59 two_stage_opamp_dummy_magic_26_0.cap_res_X.t98 sky130_fd_pr__cap_mim_m3_1 l=2 w=2
X208 VOUT-.t60 two_stage_opamp_dummy_magic_26_0.cap_res_X.t97 sky130_fd_pr__cap_mim_m3_1 l=2 w=2
X209 VOUT-.t61 two_stage_opamp_dummy_magic_26_0.cap_res_X.t96 sky130_fd_pr__cap_mim_m3_1 l=2 w=2
X210 VOUT+.t0 two_stage_opamp_dummy_magic_26_0.V_b_2nd_stage.t4 GNDA.t5 GNDA.t4 sky130_fd_pr__nfet_01v8 ad=1.4 pd=7.4 as=1.4 ps=7.4 w=7 l=0.6
X211 bgr_11_0.START_UP.t1 bgr_11_0.START_UP.t0 bgr_11_0.START_UP_NFET1.t0 GNDA.t256 sky130_fd_pr__nfet_01v8 ad=0.4 pd=2.8 as=0.2 ps=1.4 w=1 l=10
X212 two_stage_opamp_dummy_magic_26_0.VD1.t8 VIN-.t2 two_stage_opamp_dummy_magic_26_0.V_source.t30 GNDA.t219 sky130_fd_pr__nfet_01v8 ad=0.3 pd=1.9 as=0.3 ps=1.9 w=1.5 l=0.15
X213 two_stage_opamp_dummy_magic_26_0.Y.t14 two_stage_opamp_dummy_magic_26_0.Vb1.t18 two_stage_opamp_dummy_magic_26_0.VD2.t15 GNDA.t234 sky130_fd_pr__nfet_01v8 ad=0.3 pd=1.9 as=0.3 ps=1.9 w=1.5 l=0.15
X214 VOUT-.t62 two_stage_opamp_dummy_magic_26_0.cap_res_X.t95 sky130_fd_pr__cap_mim_m3_1 l=2 w=2
X215 VOUT-.t63 two_stage_opamp_dummy_magic_26_0.cap_res_X.t94 sky130_fd_pr__cap_mim_m3_1 l=2 w=2
X216 two_stage_opamp_dummy_magic_26_0.X.t21 two_stage_opamp_dummy_magic_26_0.Vb2.t18 two_stage_opamp_dummy_magic_26_0.VD3.t11 two_stage_opamp_dummy_magic_26_0.VD3.t10 sky130_fd_pr__pfet_01v8 ad=0.7 pd=3.9 as=0.7 ps=3.9 w=3.5 l=0.2
X217 VDDA.t125 GNDA.t125 GNDA.t127 GNDA.t126 sky130_fd_pr__nfet_01v8 ad=0.6 pd=3.4 as=1.2 ps=6.8 w=3 l=0.15
X218 VDDA.t417 two_stage_opamp_dummy_magic_26_0.Y.t37 two_stage_opamp_dummy_magic_26_0.V_CMFB_S4.t7 GNDA.t279 sky130_fd_pr__nfet_01v8 ad=0.6 pd=3.4 as=0.6 ps=3.4 w=3 l=0.15
X219 VOUT+.t60 two_stage_opamp_dummy_magic_26_0.cap_res_Y.t96 sky130_fd_pr__cap_mim_m3_1 l=2 w=2
X220 bgr_11_0.NFET_GATE_10uA.t2 bgr_11_0.NFET_GATE_10uA.t1 GNDA.t285 GNDA.t284 sky130_fd_pr__nfet_01v8 ad=0.2 pd=1.4 as=0.2 ps=1.4 w=1 l=0.15
X221 GNDA.t31 two_stage_opamp_dummy_magic_26_0.V_b_2nd_stage.t5 VOUT-.t0 GNDA.t30 sky130_fd_pr__nfet_01v8 ad=1.4 pd=7.4 as=1.4 ps=7.4 w=7 l=0.6
X222 VOUT-.t64 two_stage_opamp_dummy_magic_26_0.cap_res_X.t93 sky130_fd_pr__cap_mim_m3_1 l=2 w=2
X223 GNDA.t280 two_stage_opamp_dummy_magic_26_0.V_tail_gate.t17 two_stage_opamp_dummy_magic_26_0.V_source.t22 GNDA.t33 sky130_fd_pr__nfet_01v8 ad=0.5 pd=2.9 as=0.5 ps=2.9 w=2.5 l=0.15
X224 GNDA.t124 GNDA.t121 GNDA.t123 GNDA.t122 sky130_fd_pr__nfet_01v8 ad=1 pd=5.8 as=0 ps=0 w=2.5 l=0.15
X225 VDDA.t183 bgr_11_0.V_TOP.t27 bgr_11_0.Vin+.t4 VDDA.t182 sky130_fd_pr__pfet_01v8 ad=0.6 pd=3.4 as=0.6 ps=3.4 w=3 l=0.5
X226 bgr_11_0.1st_Vout_1.t11 bgr_11_0.cap_res1.t16 sky130_fd_pr__cap_mim_m3_1 l=2 w=2
X227 two_stage_opamp_dummy_magic_26_0.err_amp_out.t0 two_stage_opamp_dummy_magic_26_0.V_err_amp_ref.t7 two_stage_opamp_dummy_magic_26_0.V_err_p.t0 VDDA.t181 sky130_fd_pr__pfet_01v8 ad=0.5 pd=2.9 as=0.5 ps=2.9 w=2.5 l=0.15
X228 VOUT+.t9 two_stage_opamp_dummy_magic_26_0.Y.t38 VDDA.t131 VDDA.t130 sky130_fd_pr__pfet_01v8 ad=1.2 pd=6.4 as=1.2 ps=6.4 w=6 l=0.15
X229 two_stage_opamp_dummy_magic_26_0.VD1.t1 VIN-.t3 two_stage_opamp_dummy_magic_26_0.V_source.t5 GNDA.t3 sky130_fd_pr__nfet_01v8 ad=0.3 pd=1.9 as=0.3 ps=1.9 w=1.5 l=0.15
X230 VOUT+.t61 two_stage_opamp_dummy_magic_26_0.cap_res_Y.t95 sky130_fd_pr__cap_mim_m3_1 l=2 w=2