* PEX produced on Sun Jun 29 09:46:22 AM CEST 2025 using /foss/tools/osic-multitool/iic-pex.sh with m=3 and s=1
* NGSPICE file created from bgr_opamp_dummy_magic_4.ext - technology: sky130A

.subckt bgr_opamp_dummy_magic_4 VDDA GNDA VOUT+ VOUT- VIN+ VIN-
X0 a_n8798_9160.t1 a_n7190_9280.t1 GNDA.t138 sky130_fd_pr__res_xhigh_po_0p35 l=6
X1 VDDA.t429 ref_volt_cur_gen_dummy_magic_0.V_mir2.t17 ref_volt_cur_gen_dummy_magic_0.1st_Vout_2.t10 VDDA.t428 sky130_fd_pr__pfet_01v8 ad=0.2 pd=1.4 as=0.2 ps=1.4 w=1 l=0.2
X2 two_stage_opamp_dummy_magic_0.VD2.t10 GNDA.t324 GNDA.t326 GNDA.t325 sky130_fd_pr__nfet_01v8 ad=0.3 pd=1.9 as=0.6 ps=3.8 w=1.5 l=0.15
X3 VOUT-.t19 two_stage_opamp_dummy_magic_0.cap_res_X.t138 sky130_fd_pr__cap_mim_m3_1 l=2 w=2
X4 VOUT-.t20 two_stage_opamp_dummy_magic_0.cap_res_X.t137 sky130_fd_pr__cap_mim_m3_1 l=2 w=2
X5 VOUT-.t21 two_stage_opamp_dummy_magic_0.cap_res_X.t136 sky130_fd_pr__cap_mim_m3_1 l=2 w=2
X6 ref_volt_cur_gen_dummy_magic_0.1st_Vout_2.t11 ref_volt_cur_gen_dummy_magic_0.cap_res2.t20 sky130_fd_pr__cap_mim_m3_1 l=2 w=2
X7 VDDA.t350 ref_volt_cur_gen_dummy_magic_0.PFET_GATE_10uA.t10 two_stage_opamp_dummy_magic_0.V_tail_gate.t7 VDDA.t349 sky130_fd_pr__pfet_01v8 ad=0.2 pd=1.4 as=0.2 ps=1.4 w=1 l=0.5
X8 ref_volt_cur_gen_dummy_magic_0.1st_Vout_1.t11 ref_volt_cur_gen_dummy_magic_0.cap_res1.t19 sky130_fd_pr__cap_mim_m3_1 l=2 w=2
X9 VOUT-.t22 two_stage_opamp_dummy_magic_0.cap_res_X.t135 sky130_fd_pr__cap_mim_m3_1 l=2 w=2
X10 two_stage_opamp_dummy_magic_0.V_err_gate.t12 two_stage_opamp_dummy_magic_0.V_err_amp_ref.t7 two_stage_opamp_dummy_magic_0.V_err_mir_p.t19 VDDA.t78 sky130_fd_pr__pfet_01v8 ad=0.1 pd=0.9 as=0.1 ps=0.9 w=0.5 l=0.15
X11 VOUT-.t23 two_stage_opamp_dummy_magic_0.cap_res_X.t134 sky130_fd_pr__cap_mim_m3_1 l=2 w=2
X12 VDDA.t458 ref_volt_cur_gen_dummy_magic_0.V_mir1.t14 ref_volt_cur_gen_dummy_magic_0.V_mir1.t15 VDDA.t457 sky130_fd_pr__pfet_01v8 ad=0.2 pd=1.4 as=0.2 ps=1.4 w=1 l=0.2
X13 GNDA.t32 two_stage_opamp_dummy_magic_0.X.t25 two_stage_opamp_dummy_magic_0.V_CMFB_S1.t15 VDDA.t62 sky130_fd_pr__pfet_01v8 ad=0.4 pd=2.4 as=0.4 ps=2.4 w=2 l=0.15
X14 two_stage_opamp_dummy_magic_0.X.t13 GNDA.t321 GNDA.t323 GNDA.t322 sky130_fd_pr__nfet_01v8 ad=0.3 pd=1.9 as=0.6 ps=3.8 w=1.5 l=0.15
X15 VOUT-.t24 two_stage_opamp_dummy_magic_0.cap_res_X.t133 sky130_fd_pr__cap_mim_m3_1 l=2 w=2
X16 VOUT-.t25 two_stage_opamp_dummy_magic_0.cap_res_X.t132 sky130_fd_pr__cap_mim_m3_1 l=2 w=2
X17 VOUT-.t26 two_stage_opamp_dummy_magic_0.cap_res_X.t131 sky130_fd_pr__cap_mim_m3_1 l=2 w=2
X18 VDDA.t58 two_stage_opamp_dummy_magic_0.X.t26 VOUT-.t5 VDDA.t57 sky130_fd_pr__pfet_01v8 ad=1.2 pd=6.4 as=1.2 ps=6.4 w=6 l=0.15
X19 two_stage_opamp_dummy_magic_0.V_CMFB_S4.t10 two_stage_opamp_dummy_magic_0.Y.t25 VDDA.t89 GNDA.t69 sky130_fd_pr__nfet_01v8 ad=0.6 pd=3.4 as=0.6 ps=3.4 w=3 l=0.15
X20 VDDA.t220 VDDA.t217 VDDA.t219 VDDA.t218 sky130_fd_pr__pfet_01v8 ad=0.252 pd=2.06 as=0 ps=0 w=0.63 l=0.2
X21 ref_volt_cur_gen_dummy_magic_0.V_TOP.t14 VDDA.t309 sky130_fd_pr__cap_mim_m3_1 l=2 w=2
X22 VDDA.t352 ref_volt_cur_gen_dummy_magic_0.PFET_GATE_10uA.t11 two_stage_opamp_dummy_magic_0.V_CMFB_S1.t5 VDDA.t351 sky130_fd_pr__pfet_01v8 ad=0.5 pd=2.9 as=0.5 ps=2.9 w=2.5 l=0.5
X23 ref_volt_cur_gen_dummy_magic_0.V_p_2.t10 two_stage_opamp_dummy_magic_0.V_err_amp_ref.t8 ref_volt_cur_gen_dummy_magic_0.V_mir2.t2 GNDA.t29 sky130_fd_pr__nfet_01v8 ad=0.1 pd=0.9 as=0.1 ps=0.9 w=0.5 l=0.2
X24 VOUT+.t19 two_stage_opamp_dummy_magic_0.cap_res_Y.t137 sky130_fd_pr__cap_mim_m3_1 l=2 w=2
X25 GNDA.t238 GNDA.t319 ref_volt_cur_gen_dummy_magic_0.Vbe2.t8 sky130_fd_pr__pnp_05v5_W3p40L3p40
**devattr s=462400,2720
X26 VDDA.t27 ref_volt_cur_gen_dummy_magic_0.V_TOP.t15 ref_volt_cur_gen_dummy_magic_0.START_UP.t5 VDDA.t26 sky130_fd_pr__pfet_01v8 ad=0.6 pd=3.4 as=0.6 ps=3.4 w=3 l=0.5
X27 two_stage_opamp_dummy_magic_0.V_b_2nd_stage.t0 a_5750_2946.t0 GNDA.t51 sky130_fd_pr__res_xhigh_po_0p35 l=2.63
X28 VOUT+.t20 two_stage_opamp_dummy_magic_0.cap_res_Y.t136 sky130_fd_pr__cap_mim_m3_1 l=2 w=2
X29 VOUT+.t21 two_stage_opamp_dummy_magic_0.cap_res_Y.t135 sky130_fd_pr__cap_mim_m3_1 l=2 w=2
X30 VOUT-.t27 two_stage_opamp_dummy_magic_0.cap_res_X.t130 sky130_fd_pr__cap_mim_m3_1 l=2 w=2
X31 VDDA.t377 two_stage_opamp_dummy_magic_0.V_err_gate.t14 two_stage_opamp_dummy_magic_0.V_err_mir_p.t12 VDDA.t376 sky130_fd_pr__pfet_01v8 ad=0.1 pd=0.9 as=0.1 ps=0.9 w=0.5 l=0.15
X32 ref_volt_cur_gen_dummy_magic_0.V_p_1.t7 ref_volt_cur_gen_dummy_magic_0.Vin+.t6 ref_volt_cur_gen_dummy_magic_0.1st_Vout_1.t7 GNDA.t99 sky130_fd_pr__nfet_01v8 ad=0.1 pd=0.9 as=0.1 ps=0.9 w=0.5 l=0.2
X33 two_stage_opamp_dummy_magic_0.VD3.t35 two_stage_opamp_dummy_magic_0.VD3.t33 two_stage_opamp_dummy_magic_0.X.t21 two_stage_opamp_dummy_magic_0.VD3.t34 sky130_fd_pr__pfet_01v8 ad=1.4 pd=7.8 as=0.7 ps=3.9 w=3.5 l=0.2
X34 VOUT-.t28 two_stage_opamp_dummy_magic_0.cap_res_X.t129 sky130_fd_pr__cap_mim_m3_1 l=2 w=2
X35 VOUT-.t29 two_stage_opamp_dummy_magic_0.cap_res_X.t128 sky130_fd_pr__cap_mim_m3_1 l=2 w=2
X36 VDDA.t460 ref_volt_cur_gen_dummy_magic_0.V_TOP.t16 two_stage_opamp_dummy_magic_0.V_err_amp_ref.t6 VDDA.t459 sky130_fd_pr__pfet_01v8 ad=0.6 pd=3.4 as=0.6 ps=3.4 w=3 l=0.5
X37 VOUT+.t22 two_stage_opamp_dummy_magic_0.cap_res_Y.t134 sky130_fd_pr__cap_mim_m3_1 l=2 w=2
X38 GNDA.t119 two_stage_opamp_dummy_magic_0.err_amp_mir.t13 two_stage_opamp_dummy_magic_0.err_amp_mir.t14 GNDA.t118 sky130_fd_pr__nfet_01v8 ad=0.1 pd=0.9 as=0.1 ps=0.9 w=0.5 l=0.15
X39 GNDA.t229 GNDA.t320 ref_volt_cur_gen_dummy_magic_0.Vbe2.t7 sky130_fd_pr__pnp_05v5_W3p40L3p40
**devattr s=462400,2720
X40 ref_volt_cur_gen_dummy_magic_0.1st_Vout_1.t12 ref_volt_cur_gen_dummy_magic_0.cap_res1.t18 sky130_fd_pr__cap_mim_m3_1 l=2 w=2
X41 VOUT-.t30 two_stage_opamp_dummy_magic_0.cap_res_X.t127 sky130_fd_pr__cap_mim_m3_1 l=2 w=2
X42 VDDA.t80 two_stage_opamp_dummy_magic_0.Vb3.t16 two_stage_opamp_dummy_magic_0.VD3.t8 VDDA.t79 sky130_fd_pr__pfet_01v8 ad=0.7 pd=3.9 as=0.7 ps=3.9 w=3.5 l=0.2
X43 VDDA.t216 VDDA.t214 two_stage_opamp_dummy_magic_0.V_err_gate.t2 VDDA.t215 sky130_fd_pr__pfet_01v8 ad=0.2 pd=1.8 as=0.1 ps=0.9 w=0.5 l=0.15
X44 VOUT-.t31 two_stage_opamp_dummy_magic_0.cap_res_X.t126 sky130_fd_pr__cap_mim_m3_1 l=2 w=2
X45 VOUT+.t23 two_stage_opamp_dummy_magic_0.cap_res_Y.t133 sky130_fd_pr__cap_mim_m3_1 l=2 w=2
X46 two_stage_opamp_dummy_magic_0.Y.t15 GNDA.t316 GNDA.t318 GNDA.t317 sky130_fd_pr__nfet_01v8 ad=0.3 pd=1.9 as=0.6 ps=3.8 w=1.5 l=0.15
X47 two_stage_opamp_dummy_magic_0.Y.t12 two_stage_opamp_dummy_magic_0.Vb1.t6 two_stage_opamp_dummy_magic_0.VD1.t11 GNDA.t203 sky130_fd_pr__nfet_01v8 ad=0.3 pd=1.9 as=0.3 ps=1.9 w=1.5 l=0.15
X48 VOUT+.t24 two_stage_opamp_dummy_magic_0.cap_res_Y.t132 sky130_fd_pr__cap_mim_m3_1 l=2 w=2
X49 VOUT+.t25 two_stage_opamp_dummy_magic_0.cap_res_Y.t131 sky130_fd_pr__cap_mim_m3_1 l=2 w=2
X50 two_stage_opamp_dummy_magic_0.V_err_p.t14 two_stage_opamp_dummy_magic_0.V_err_gate.t15 VDDA.t379 VDDA.t378 sky130_fd_pr__pfet_01v8 ad=0.1 pd=0.9 as=0.1 ps=0.9 w=0.5 l=0.15
X51 VOUT-.t6 two_stage_opamp_dummy_magic_0.X.t27 VDDA.t60 VDDA.t59 sky130_fd_pr__pfet_01v8 ad=1.2 pd=6.4 as=1.2 ps=6.4 w=6 l=0.15
X52 two_stage_opamp_dummy_magic_0.V_p.t3 two_stage_opamp_dummy_magic_0.Vb1.t0 two_stage_opamp_dummy_magic_0.Vb1.t1 GNDA.t162 sky130_fd_pr__nfet_01v8 ad=0.4 pd=2.8 as=0.4 ps=2.8 w=1 l=2.3
X53 two_stage_opamp_dummy_magic_0.V_err_p.t16 two_stage_opamp_dummy_magic_0.V_tot.t4 two_stage_opamp_dummy_magic_0.err_amp_mir.t16 VDDA.t448 sky130_fd_pr__pfet_01v8 ad=0.1 pd=0.9 as=0.1 ps=0.9 w=0.5 l=0.15
X54 VDDA.t441 ref_volt_cur_gen_dummy_magic_0.1st_Vout_2.t12 ref_volt_cur_gen_dummy_magic_0.PFET_GATE_10uA.t9 VDDA.t440 sky130_fd_pr__pfet_01v8 ad=0.2 pd=1.4 as=0.2 ps=1.4 w=1 l=0.2
X55 VOUT+.t26 two_stage_opamp_dummy_magic_0.cap_res_Y.t130 sky130_fd_pr__cap_mim_m3_1 l=2 w=2
X56 ref_volt_cur_gen_dummy_magic_0.1st_Vout_2.t13 ref_volt_cur_gen_dummy_magic_0.cap_res2.t19 sky130_fd_pr__cap_mim_m3_1 l=2 w=2
X57 VDDA.t474 two_stage_opamp_dummy_magic_0.Vb3.t17 two_stage_opamp_dummy_magic_0.Vb2_Vb3.t3 VDDA.t473 sky130_fd_pr__pfet_01v8 ad=0.16 pd=1.2 as=0.16 ps=1.2 w=0.8 l=0.2
X58 two_stage_opamp_dummy_magic_0.V_CMFB_S2.t12 ref_volt_cur_gen_dummy_magic_0.NFET_GATE_10uA.t5 GNDA.t164 GNDA.t163 sky130_fd_pr__nfet_01v8 ad=0.2 pd=1.4 as=0.2 ps=1.4 w=1 l=0.5
X59 two_stage_opamp_dummy_magic_0.VD1.t14 VIN-.t0 two_stage_opamp_dummy_magic_0.V_p.t25 GNDA.t190 sky130_fd_pr__nfet_01v8 ad=0.3 pd=1.9 as=0.3 ps=1.9 w=1.5 l=0.15
X60 VOUT+.t27 two_stage_opamp_dummy_magic_0.cap_res_Y.t129 sky130_fd_pr__cap_mim_m3_1 l=2 w=2
X61 VOUT-.t32 two_stage_opamp_dummy_magic_0.cap_res_X.t125 sky130_fd_pr__cap_mim_m3_1 l=2 w=2
X62 VOUT+.t28 two_stage_opamp_dummy_magic_0.cap_res_Y.t128 sky130_fd_pr__cap_mim_m3_1 l=2 w=2
X63 two_stage_opamp_dummy_magic_0.V_err_p.t13 two_stage_opamp_dummy_magic_0.V_err_gate.t16 VDDA.t48 VDDA.t47 sky130_fd_pr__pfet_01v8 ad=0.1 pd=0.9 as=0.1 ps=0.9 w=0.5 l=0.15
X64 VDDA.t231 ref_volt_cur_gen_dummy_magic_0.V_TOP.t17 ref_volt_cur_gen_dummy_magic_0.Vin+.t4 VDDA.t230 sky130_fd_pr__pfet_01v8 ad=0.6 pd=3.4 as=0.6 ps=3.4 w=3 l=0.5
X65 VOUT+.t29 two_stage_opamp_dummy_magic_0.cap_res_Y.t127 sky130_fd_pr__cap_mim_m3_1 l=2 w=2
X66 VOUT+.t30 two_stage_opamp_dummy_magic_0.cap_res_Y.t126 sky130_fd_pr__cap_mim_m3_1 l=2 w=2
X67 GNDA.t133 two_stage_opamp_dummy_magic_0.Y.t26 two_stage_opamp_dummy_magic_0.V_CMFB_S3.t12 VDDA.t270 sky130_fd_pr__pfet_01v8 ad=0.4 pd=2.4 as=0.4 ps=2.4 w=2 l=0.15
X68 VOUT-.t33 two_stage_opamp_dummy_magic_0.cap_res_X.t124 sky130_fd_pr__cap_mim_m3_1 l=2 w=2
X69 GNDA.t176 ref_volt_cur_gen_dummy_magic_0.START_UP_NFET1.t1 ref_volt_cur_gen_dummy_magic_0.START_UP_NFET1.t0 GNDA.t175 sky130_fd_pr__nfet_01v8 ad=0.4 pd=2.8 as=0.2 ps=1.4 w=1 l=10
X70 two_stage_opamp_dummy_magic_0.VD1.t0 VIN-.t1 two_stage_opamp_dummy_magic_0.V_p.t0 GNDA.t16 sky130_fd_pr__nfet_01v8 ad=0.3 pd=1.9 as=0.3 ps=1.9 w=1.5 l=0.15
X71 VDDA.t71 two_stage_opamp_dummy_magic_0.Vb3.t18 two_stage_opamp_dummy_magic_0.VD3.t7 VDDA.t70 sky130_fd_pr__pfet_01v8 ad=0.7 pd=3.9 as=0.7 ps=3.9 w=3.5 l=0.2
X72 VOUT+.t31 two_stage_opamp_dummy_magic_0.cap_res_Y.t125 sky130_fd_pr__cap_mim_m3_1 l=2 w=2
X73 two_stage_opamp_dummy_magic_0.X.t16 two_stage_opamp_dummy_magic_0.Vb2.t9 two_stage_opamp_dummy_magic_0.VD3.t18 two_stage_opamp_dummy_magic_0.VD3.t17 sky130_fd_pr__pfet_01v8 ad=0.7 pd=3.9 as=0.7 ps=3.9 w=3.5 l=0.2
X74 ref_volt_cur_gen_dummy_magic_0.1st_Vout_1.t13 ref_volt_cur_gen_dummy_magic_0.cap_res1.t17 sky130_fd_pr__cap_mim_m3_1 l=2 w=2
X75 VOUT-.t34 two_stage_opamp_dummy_magic_0.cap_res_X.t123 sky130_fd_pr__cap_mim_m3_1 l=2 w=2
X76 GNDA.t47 two_stage_opamp_dummy_magic_0.V_b_2nd_stage.t2 VOUT+.t1 GNDA.t46 sky130_fd_pr__nfet_01v8 ad=1.4 pd=7.4 as=1.4 ps=7.4 w=7 l=0.6
X77 GNDA.t208 two_stage_opamp_dummy_magic_0.X.t28 two_stage_opamp_dummy_magic_0.V_CMFB_S1.t14 VDDA.t374 sky130_fd_pr__pfet_01v8 ad=0.4 pd=2.4 as=0.4 ps=2.4 w=2 l=0.15
X78 GNDA.t64 two_stage_opamp_dummy_magic_0.V_tail_gate.t12 two_stage_opamp_dummy_magic_0.V_p.t22 GNDA.t63 sky130_fd_pr__nfet_01v8 ad=0.5 pd=2.9 as=0.5 ps=2.9 w=2.5 l=0.15
X79 VDDA.t439 ref_volt_cur_gen_dummy_magic_0.1st_Vout_2.t14 ref_volt_cur_gen_dummy_magic_0.PFET_GATE_10uA.t8 VDDA.t438 sky130_fd_pr__pfet_01v8 ad=0.2 pd=1.4 as=0.2 ps=1.4 w=1 l=0.2
X80 two_stage_opamp_dummy_magic_0.V_CMFB_S2.t13 GNDA.t313 GNDA.t315 GNDA.t314 sky130_fd_pr__nfet_01v8 ad=0.2 pd=1.4 as=0.4 ps=2.8 w=1 l=0.5
X81 VOUT+.t32 two_stage_opamp_dummy_magic_0.cap_res_Y.t124 sky130_fd_pr__cap_mim_m3_1 l=2 w=2
X82 GNDA.t312 GNDA.t310 two_stage_opamp_dummy_magic_0.VD1.t18 GNDA.t311 sky130_fd_pr__nfet_01v8 ad=0.6 pd=3.8 as=0.3 ps=1.9 w=1.5 l=0.15
X83 VOUT+.t33 two_stage_opamp_dummy_magic_0.cap_res_Y.t123 sky130_fd_pr__cap_mim_m3_1 l=2 w=2
X84 ref_volt_cur_gen_dummy_magic_0.1st_Vout_1.t14 ref_volt_cur_gen_dummy_magic_0.cap_res1.t16 sky130_fd_pr__cap_mim_m3_1 l=2 w=2
X85 VOUT-.t35 two_stage_opamp_dummy_magic_0.cap_res_X.t122 sky130_fd_pr__cap_mim_m3_1 l=2 w=2
X86 VOUT+.t34 two_stage_opamp_dummy_magic_0.cap_res_Y.t122 sky130_fd_pr__cap_mim_m3_1 l=2 w=2
X87 VOUT-.t36 two_stage_opamp_dummy_magic_0.cap_res_X.t121 sky130_fd_pr__cap_mim_m3_1 l=2 w=2
X88 VOUT+.t14 two_stage_opamp_dummy_magic_0.Y.t27 VDDA.t272 VDDA.t271 sky130_fd_pr__pfet_01v8 ad=1.2 pd=6.4 as=1.2 ps=6.4 w=6 l=0.15
X89 GNDA.t309 GNDA.t307 GNDA.t309 GNDA.t308 sky130_fd_pr__nfet_01v8 ad=0.5 pd=2.9 as=0 ps=0 w=2.5 l=0.15
X90 GNDA.t306 GNDA.t304 two_stage_opamp_dummy_magic_0.VD1.t17 GNDA.t305 sky130_fd_pr__nfet_01v8 ad=0.6 pd=3.8 as=0.3 ps=1.9 w=1.5 l=0.15
X91 two_stage_opamp_dummy_magic_0.V_CMFB_S3.t2 VDDA.t211 VDDA.t213 VDDA.t212 sky130_fd_pr__pfet_01v8 ad=0.5 pd=2.9 as=1 ps=5.8 w=2.5 l=0.5
X92 VDDA.t50 two_stage_opamp_dummy_magic_0.V_err_gate.t17 two_stage_opamp_dummy_magic_0.V_err_p.t12 VDDA.t49 sky130_fd_pr__pfet_01v8 ad=0.1 pd=0.9 as=0.1 ps=0.9 w=0.5 l=0.15
X93 VOUT+.t35 two_stage_opamp_dummy_magic_0.cap_res_Y.t121 sky130_fd_pr__cap_mim_m3_1 l=2 w=2
X94 ref_volt_cur_gen_dummy_magic_0.V_TOP.t18 VDDA.t331 sky130_fd_pr__cap_mim_m3_1 l=2 w=2
X95 GNDA.t303 GNDA.t301 VOUT+.t18 GNDA.t302 sky130_fd_pr__nfet_01v8 ad=2.8 pd=14.8 as=1.4 ps=7.4 w=7 l=0.6
X96 two_stage_opamp_dummy_magic_0.V_CMFB_S2.t9 two_stage_opamp_dummy_magic_0.X.t29 VDDA.t375 GNDA.t209 sky130_fd_pr__nfet_01v8 ad=0.6 pd=3.4 as=0.6 ps=3.4 w=3 l=0.15
X97 ref_volt_cur_gen_dummy_magic_0.1st_Vout_1.t15 ref_volt_cur_gen_dummy_magic_0.cap_res1.t15 sky130_fd_pr__cap_mim_m3_1 l=2 w=2
X98 two_stage_opamp_dummy_magic_0.X.t18 two_stage_opamp_dummy_magic_0.Vb2.t10 two_stage_opamp_dummy_magic_0.VD3.t22 two_stage_opamp_dummy_magic_0.VD3.t21 sky130_fd_pr__pfet_01v8 ad=0.7 pd=3.9 as=0.7 ps=3.9 w=3.5 l=0.2
X99 a_5230_5852.t1 two_stage_opamp_dummy_magic_0.V_CMFB_S1.t16 GNDA.t150 sky130_fd_pr__res_xhigh_po_0p35 l=1.77
X100 GNDA.t300 GNDA.t298 two_stage_opamp_dummy_magic_0.X.t12 GNDA.t299 sky130_fd_pr__nfet_01v8 ad=0.6 pd=3.8 as=0.3 ps=1.9 w=1.5 l=0.15
X101 GNDA.t297 GNDA.t295 two_stage_opamp_dummy_magic_0.Vb3.t12 GNDA.t296 sky130_fd_pr__nfet_01v8 ad=0.4 pd=2.8 as=0.2 ps=1.4 w=1 l=0.5
X102 GNDA.t124 ref_volt_cur_gen_dummy_magic_0.NFET_GATE_10uA.t2 ref_volt_cur_gen_dummy_magic_0.NFET_GATE_10uA.t3 GNDA.t123 sky130_fd_pr__nfet_01v8 ad=0.2 pd=1.4 as=0.2 ps=1.4 w=1 l=0.5
X103 ref_volt_cur_gen_dummy_magic_0.V_TOP.t19 VDDA.t28 sky130_fd_pr__cap_mim_m3_1 l=2 w=2
X104 two_stage_opamp_dummy_magic_0.V_err_mir_p.t0 two_stage_opamp_dummy_magic_0.V_err_gate.t18 VDDA.t6 VDDA.t5 sky130_fd_pr__pfet_01v8 ad=0.1 pd=0.9 as=0.1 ps=0.9 w=0.5 l=0.15
X105 VOUT-.t16 two_stage_opamp_dummy_magic_0.X.t30 VDDA.t381 VDDA.t380 sky130_fd_pr__pfet_01v8 ad=1.2 pd=6.4 as=1.2 ps=6.4 w=6 l=0.15
X106 VOUT+.t36 two_stage_opamp_dummy_magic_0.cap_res_Y.t120 sky130_fd_pr__cap_mim_m3_1 l=2 w=2
X107 VOUT+.t37 two_stage_opamp_dummy_magic_0.cap_res_Y.t119 sky130_fd_pr__cap_mim_m3_1 l=2 w=2
X108 VOUT+.t38 two_stage_opamp_dummy_magic_0.cap_res_Y.t118 sky130_fd_pr__cap_mim_m3_1 l=2 w=2
X109 VOUT+.t39 two_stage_opamp_dummy_magic_0.cap_res_Y.t117 sky130_fd_pr__cap_mim_m3_1 l=2 w=2
X110 VOUT+.t40 two_stage_opamp_dummy_magic_0.cap_res_Y.t116 sky130_fd_pr__cap_mim_m3_1 l=2 w=2
X111 ref_volt_cur_gen_dummy_magic_0.1st_Vout_2.t4 ref_volt_cur_gen_dummy_magic_0.V_CUR_REF_REG.t3 ref_volt_cur_gen_dummy_magic_0.V_p_2.t5 GNDA.t183 sky130_fd_pr__nfet_01v8 ad=0.2 pd=1.8 as=0.1 ps=0.9 w=0.5 l=0.2
X112 VOUT-.t37 two_stage_opamp_dummy_magic_0.cap_res_X.t120 sky130_fd_pr__cap_mim_m3_1 l=2 w=2
X113 VOUT-.t38 two_stage_opamp_dummy_magic_0.cap_res_X.t119 sky130_fd_pr__cap_mim_m3_1 l=2 w=2
X114 VDDA.t210 VDDA.t208 two_stage_opamp_dummy_magic_0.Vb1.t3 VDDA.t209 sky130_fd_pr__pfet_01v8 ad=0.4 pd=2.8 as=0.2 ps=1.4 w=1 l=0.5
X115 VOUT-.t39 two_stage_opamp_dummy_magic_0.cap_res_X.t118 sky130_fd_pr__cap_mim_m3_1 l=2 w=2
X116 ref_volt_cur_gen_dummy_magic_0.1st_Vout_2.t7 ref_volt_cur_gen_dummy_magic_0.V_mir2.t18 VDDA.t427 VDDA.t426 sky130_fd_pr__pfet_01v8 ad=0.2 pd=1.4 as=0.2 ps=1.4 w=1 l=0.2
X117 VDDA.t207 VDDA.t205 two_stage_opamp_dummy_magic_0.VD3.t11 VDDA.t206 sky130_fd_pr__pfet_01v8 ad=1.4 pd=7.8 as=0.7 ps=3.9 w=3.5 l=0.2
X118 two_stage_opamp_dummy_magic_0.V_CMFB_S4.t12 ref_volt_cur_gen_dummy_magic_0.NFET_GATE_10uA.t6 GNDA.t170 GNDA.t169 sky130_fd_pr__nfet_01v8 ad=0.2 pd=1.4 as=0.2 ps=1.4 w=1 l=0.5
X119 VOUT-.t40 two_stage_opamp_dummy_magic_0.cap_res_X.t117 sky130_fd_pr__cap_mim_m3_1 l=2 w=2
X120 ref_volt_cur_gen_dummy_magic_0.V_TOP.t20 VDDA.t285 sky130_fd_pr__cap_mim_m3_1 l=2 w=2
X121 GNDA.t137 two_stage_opamp_dummy_magic_0.Y.t28 two_stage_opamp_dummy_magic_0.V_CMFB_S3.t11 VDDA.t282 sky130_fd_pr__pfet_01v8 ad=0.4 pd=2.4 as=0.4 ps=2.4 w=2 l=0.15
X122 VOUT-.t41 two_stage_opamp_dummy_magic_0.cap_res_X.t116 sky130_fd_pr__cap_mim_m3_1 l=2 w=2
X123 ref_volt_cur_gen_dummy_magic_0.1st_Vout_1.t16 ref_volt_cur_gen_dummy_magic_0.cap_res1.t14 sky130_fd_pr__cap_mim_m3_1 l=2 w=2
X124 VDDA.t382 two_stage_opamp_dummy_magic_0.X.t31 two_stage_opamp_dummy_magic_0.V_CMFB_S2.t8 GNDA.t210 sky130_fd_pr__nfet_01v8 ad=0.6 pd=3.4 as=0.6 ps=3.4 w=3 l=0.15
X125 two_stage_opamp_dummy_magic_0.VD4.t37 two_stage_opamp_dummy_magic_0.Vb2.t11 two_stage_opamp_dummy_magic_0.Y.t17 two_stage_opamp_dummy_magic_0.VD4.t36 sky130_fd_pr__pfet_01v8 ad=0.7 pd=3.9 as=0.7 ps=3.9 w=3.5 l=0.2
X126 ref_volt_cur_gen_dummy_magic_0.V_mir1.t13 ref_volt_cur_gen_dummy_magic_0.V_mir1.t12 VDDA.t445 VDDA.t444 sky130_fd_pr__pfet_01v8 ad=0.2 pd=1.4 as=0.2 ps=1.4 w=1 l=0.2
X127 GNDA.t220 ref_volt_cur_gen_dummy_magic_0.NFET_GATE_10uA.t7 two_stage_opamp_dummy_magic_0.Vb3.t10 GNDA.t219 sky130_fd_pr__nfet_01v8 ad=0.2 pd=1.4 as=0.2 ps=1.4 w=1 l=0.5
X128 VOUT+.t41 two_stage_opamp_dummy_magic_0.cap_res_Y.t115 sky130_fd_pr__cap_mim_m3_1 l=2 w=2
X129 GNDA.t294 GNDA.t292 two_stage_opamp_dummy_magic_0.Y.t14 GNDA.t293 sky130_fd_pr__nfet_01v8 ad=0.6 pd=3.8 as=0.3 ps=1.9 w=1.5 l=0.15
X130 ref_volt_cur_gen_dummy_magic_0.1st_Vout_1.t17 ref_volt_cur_gen_dummy_magic_0.cap_res1.t13 sky130_fd_pr__cap_mim_m3_1 l=2 w=2
X131 GNDA.t125 two_stage_opamp_dummy_magic_0.X.t32 two_stage_opamp_dummy_magic_0.V_CMFB_S1.t13 VDDA.t254 sky130_fd_pr__pfet_01v8 ad=0.4 pd=2.4 as=0.4 ps=2.4 w=2 l=0.15
X132 VOUT+.t42 two_stage_opamp_dummy_magic_0.cap_res_Y.t114 sky130_fd_pr__cap_mim_m3_1 l=2 w=2
X133 ref_volt_cur_gen_dummy_magic_0.V_TOP.t21 VDDA.t468 sky130_fd_pr__cap_mim_m3_1 l=2 w=2
X134 GNDA.t66 two_stage_opamp_dummy_magic_0.V_tail_gate.t13 two_stage_opamp_dummy_magic_0.V_p.t21 GNDA.t65 sky130_fd_pr__nfet_01v8 ad=0.5 pd=2.9 as=0.5 ps=2.9 w=2.5 l=0.15
X135 GNDA.t126 two_stage_opamp_dummy_magic_0.X.t33 two_stage_opamp_dummy_magic_0.V_CMFB_S1.t12 VDDA.t255 sky130_fd_pr__pfet_01v8 ad=0.4 pd=2.4 as=0.4 ps=2.4 w=2 l=0.15
X136 two_stage_opamp_dummy_magic_0.X.t10 two_stage_opamp_dummy_magic_0.Vb1.t7 two_stage_opamp_dummy_magic_0.VD2.t7 GNDA.t211 sky130_fd_pr__nfet_01v8 ad=0.3 pd=1.9 as=0.3 ps=1.9 w=1.5 l=0.15
X137 ref_volt_cur_gen_dummy_magic_0.Vin+.t3 ref_volt_cur_gen_dummy_magic_0.V_TOP.t22 VDDA.t260 VDDA.t259 sky130_fd_pr__pfet_01v8 ad=0.6 pd=3.4 as=0.6 ps=3.4 w=3 l=0.5
X138 VOUT+.t43 two_stage_opamp_dummy_magic_0.cap_res_Y.t113 sky130_fd_pr__cap_mim_m3_1 l=2 w=2
X139 VOUT-.t42 two_stage_opamp_dummy_magic_0.cap_res_X.t115 sky130_fd_pr__cap_mim_m3_1 l=2 w=2
X140 two_stage_opamp_dummy_magic_0.V_p.t33 VIN+.t0 two_stage_opamp_dummy_magic_0.VD2.t15 GNDA.t337 sky130_fd_pr__nfet_01v8 ad=0.3 pd=1.9 as=0.3 ps=1.9 w=1.5 l=0.15
X141 ref_volt_cur_gen_dummy_magic_0.V_mir2.t3 two_stage_opamp_dummy_magic_0.V_err_amp_ref.t9 ref_volt_cur_gen_dummy_magic_0.V_p_2.t9 GNDA.t30 sky130_fd_pr__nfet_01v8 ad=0.1 pd=0.9 as=0.1 ps=0.9 w=0.5 l=0.2
X142 VOUT+.t44 two_stage_opamp_dummy_magic_0.cap_res_Y.t112 sky130_fd_pr__cap_mim_m3_1 l=2 w=2
X143 two_stage_opamp_dummy_magic_0.V_tail_gate.t6 ref_volt_cur_gen_dummy_magic_0.PFET_GATE_10uA.t12 VDDA.t346 VDDA.t345 sky130_fd_pr__pfet_01v8 ad=0.2 pd=1.4 as=0.2 ps=1.4 w=1 l=0.5
X144 VOUT-.t7 a_5750_2946.t1 GNDA.t71 sky130_fd_pr__res_xhigh_po_0p35 l=2.63
X145 VOUT-.t43 two_stage_opamp_dummy_magic_0.cap_res_X.t114 sky130_fd_pr__cap_mim_m3_1 l=2 w=2
X146 VOUT-.t44 two_stage_opamp_dummy_magic_0.cap_res_X.t113 sky130_fd_pr__cap_mim_m3_1 l=2 w=2
X147 ref_volt_cur_gen_dummy_magic_0.1st_Vout_1.t6 ref_volt_cur_gen_dummy_magic_0.Vin+.t7 ref_volt_cur_gen_dummy_magic_0.V_p_1.t6 GNDA.t91 sky130_fd_pr__nfet_01v8 ad=0.1 pd=0.9 as=0.1 ps=0.9 w=0.5 l=0.2
X148 ref_volt_cur_gen_dummy_magic_0.1st_Vout_1.t18 ref_volt_cur_gen_dummy_magic_0.cap_res1.t12 sky130_fd_pr__cap_mim_m3_1 l=2 w=2
X149 VOUT+.t13 two_stage_opamp_dummy_magic_0.Y.t29 VDDA.t284 VDDA.t283 sky130_fd_pr__pfet_01v8 ad=1.2 pd=6.4 as=1.2 ps=6.4 w=6 l=0.15
X150 two_stage_opamp_dummy_magic_0.V_p.t20 two_stage_opamp_dummy_magic_0.V_tail_gate.t14 GNDA.t156 GNDA.t155 sky130_fd_pr__nfet_01v8 ad=0.5 pd=2.9 as=0.5 ps=2.9 w=2.5 l=0.15
X151 two_stage_opamp_dummy_magic_0.V_p.t32 VIN+.t1 two_stage_opamp_dummy_magic_0.VD2.t14 GNDA.t336 sky130_fd_pr__nfet_01v8 ad=0.3 pd=1.9 as=0.3 ps=1.9 w=1.5 l=0.15
X152 VOUT+.t45 two_stage_opamp_dummy_magic_0.cap_res_Y.t111 sky130_fd_pr__cap_mim_m3_1 l=2 w=2
X153 VOUT+.t46 two_stage_opamp_dummy_magic_0.cap_res_Y.t110 sky130_fd_pr__cap_mim_m3_1 l=2 w=2
X154 VDDA.t248 ref_volt_cur_gen_dummy_magic_0.V_mir1.t17 ref_volt_cur_gen_dummy_magic_0.1st_Vout_1.t8 VDDA.t247 sky130_fd_pr__pfet_01v8 ad=0.2 pd=1.4 as=0.2 ps=1.4 w=1 l=0.2
X155 two_stage_opamp_dummy_magic_0.VD3.t14 two_stage_opamp_dummy_magic_0.Vb3.t19 VDDA.t357 VDDA.t356 sky130_fd_pr__pfet_01v8 ad=0.7 pd=3.9 as=0.7 ps=3.9 w=3.5 l=0.2
X156 VOUT-.t45 two_stage_opamp_dummy_magic_0.cap_res_X.t112 sky130_fd_pr__cap_mim_m3_1 l=2 w=2
X157 VDDA.t201 VDDA.t199 two_stage_opamp_dummy_magic_0.Vb2.t0 VDDA.t200 sky130_fd_pr__pfet_01v8 ad=0.252 pd=2.06 as=0.126 ps=1.03 w=0.63 l=0.2
X158 VOUT+.t47 two_stage_opamp_dummy_magic_0.cap_res_Y.t109 sky130_fd_pr__cap_mim_m3_1 l=2 w=2
X159 VOUT+.t48 two_stage_opamp_dummy_magic_0.cap_res_Y.t108 sky130_fd_pr__cap_mim_m3_1 l=2 w=2
X160 VOUT+.t49 two_stage_opamp_dummy_magic_0.cap_res_Y.t107 sky130_fd_pr__cap_mim_m3_1 l=2 w=2
X161 two_stage_opamp_dummy_magic_0.V_err_amp_ref.t4 a_n9700_9790.t1 GNDA.t149 sky130_fd_pr__res_xhigh_po_0p35 l=6.3
X162 VOUT+.t17 GNDA.t289 GNDA.t291 GNDA.t290 sky130_fd_pr__nfet_01v8 ad=1.4 pd=7.4 as=2.8 ps=14.8 w=7 l=0.6
X163 a_14520_5852.t1 two_stage_opamp_dummy_magic_0.V_CMFB_S3.t0 GNDA.t15 sky130_fd_pr__res_xhigh_po_0p35 l=1.77
X164 two_stage_opamp_dummy_magic_0.Vb3.t14 two_stage_opamp_dummy_magic_0.Vb2.t12 two_stage_opamp_dummy_magic_0.Vb2_Vb3.t15 two_stage_opamp_dummy_magic_0.Vb2_Vb3.t14 sky130_fd_pr__pfet_01v8 ad=0.12 pd=1 as=0.12 ps=1 w=0.6 l=0.2
X165 ref_volt_cur_gen_dummy_magic_0.PFET_GATE_10uA.t7 ref_volt_cur_gen_dummy_magic_0.1st_Vout_2.t15 VDDA.t437 VDDA.t436 sky130_fd_pr__pfet_01v8 ad=0.2 pd=1.4 as=0.2 ps=1.4 w=1 l=0.2
X166 VOUT+.t50 two_stage_opamp_dummy_magic_0.cap_res_Y.t106 sky130_fd_pr__cap_mim_m3_1 l=2 w=2
X167 VOUT+.t51 two_stage_opamp_dummy_magic_0.cap_res_Y.t105 sky130_fd_pr__cap_mim_m3_1 l=2 w=2
X168 two_stage_opamp_dummy_magic_0.VD2.t3 two_stage_opamp_dummy_magic_0.Vb1.t8 two_stage_opamp_dummy_magic_0.X.t6 GNDA.t111 sky130_fd_pr__nfet_01v8 ad=0.3 pd=1.9 as=0.3 ps=1.9 w=1.5 l=0.15
X169 VOUT-.t46 two_stage_opamp_dummy_magic_0.cap_res_X.t111 sky130_fd_pr__cap_mim_m3_1 l=2 w=2
X170 VOUT-.t47 two_stage_opamp_dummy_magic_0.cap_res_X.t110 sky130_fd_pr__cap_mim_m3_1 l=2 w=2
X171 ref_volt_cur_gen_dummy_magic_0.1st_Vout_2.t16 ref_volt_cur_gen_dummy_magic_0.cap_res2.t18 sky130_fd_pr__cap_mim_m3_1 l=2 w=2
X172 VOUT-.t3 two_stage_opamp_dummy_magic_0.X.t34 VDDA.t52 VDDA.t51 sky130_fd_pr__pfet_01v8 ad=1.2 pd=6.4 as=1.2 ps=6.4 w=6 l=0.15
X173 VOUT-.t4 two_stage_opamp_dummy_magic_0.X.t35 VDDA.t54 VDDA.t53 sky130_fd_pr__pfet_01v8 ad=1.2 pd=6.4 as=1.2 ps=6.4 w=6 l=0.15
X174 VDDA.t65 two_stage_opamp_dummy_magic_0.Y.t30 two_stage_opamp_dummy_magic_0.V_CMFB_S4.t9 GNDA.t42 sky130_fd_pr__nfet_01v8 ad=0.6 pd=3.4 as=0.6 ps=3.4 w=3 l=0.15
X175 VOUT-.t48 two_stage_opamp_dummy_magic_0.cap_res_X.t109 sky130_fd_pr__cap_mim_m3_1 l=2 w=2
X176 VOUT-.t49 two_stage_opamp_dummy_magic_0.cap_res_X.t108 sky130_fd_pr__cap_mim_m3_1 l=2 w=2
X177 VOUT-.t0 two_stage_opamp_dummy_magic_0.V_b_2nd_stage.t3 GNDA.t3 GNDA.t2 sky130_fd_pr__nfet_01v8 ad=1.4 pd=7.4 as=1.4 ps=7.4 w=7 l=0.6
X178 ref_volt_cur_gen_dummy_magic_0.1st_Vout_2.t17 ref_volt_cur_gen_dummy_magic_0.cap_res2.t17 sky130_fd_pr__cap_mim_m3_1 l=2 w=2
X179 two_stage_opamp_dummy_magic_0.cap_res_X.t0 two_stage_opamp_dummy_magic_0.X.t4 GNDA.t70 sky130_fd_pr__res_high_po_1p41 l=1.41
X180 VOUT-.t50 two_stage_opamp_dummy_magic_0.cap_res_X.t107 sky130_fd_pr__cap_mim_m3_1 l=2 w=2
X181 GNDA.t43 two_stage_opamp_dummy_magic_0.Y.t31 two_stage_opamp_dummy_magic_0.V_CMFB_S3.t10 VDDA.t66 sky130_fd_pr__pfet_01v8 ad=0.4 pd=2.4 as=0.4 ps=2.4 w=2 l=0.15
X182 VOUT+.t52 two_stage_opamp_dummy_magic_0.cap_res_Y.t104 sky130_fd_pr__cap_mim_m3_1 l=2 w=2
X183 two_stage_opamp_dummy_magic_0.VD3.t6 two_stage_opamp_dummy_magic_0.Vb3.t20 VDDA.t69 VDDA.t68 sky130_fd_pr__pfet_01v8 ad=0.7 pd=3.9 as=0.7 ps=3.9 w=3.5 l=0.2
X184 VOUT+.t53 two_stage_opamp_dummy_magic_0.cap_res_Y.t103 sky130_fd_pr__cap_mim_m3_1 l=2 w=2
X185 two_stage_opamp_dummy_magic_0.VD3.t20 two_stage_opamp_dummy_magic_0.Vb2.t13 two_stage_opamp_dummy_magic_0.X.t17 two_stage_opamp_dummy_magic_0.VD3.t19 sky130_fd_pr__pfet_01v8 ad=0.7 pd=3.9 as=0.7 ps=3.9 w=3.5 l=0.2
X186 two_stage_opamp_dummy_magic_0.err_amp_out.t5 two_stage_opamp_dummy_magic_0.err_amp_mir.t17 GNDA.t213 GNDA.t212 sky130_fd_pr__nfet_01v8 ad=0.1 pd=0.9 as=0.1 ps=0.9 w=0.5 l=0.15
X187 VDDA.t204 VDDA.t202 two_stage_opamp_dummy_magic_0.V_CMFB_S3.t1 VDDA.t203 sky130_fd_pr__pfet_01v8 ad=1 pd=5.8 as=0.5 ps=2.9 w=2.5 l=0.5
X188 VDDA.t9 two_stage_opamp_dummy_magic_0.X.t36 two_stage_opamp_dummy_magic_0.V_CMFB_S2.t7 GNDA.t0 sky130_fd_pr__nfet_01v8 ad=0.6 pd=3.4 as=0.6 ps=3.4 w=3 l=0.15
X189 ref_volt_cur_gen_dummy_magic_0.1st_Vout_2.t18 ref_volt_cur_gen_dummy_magic_0.cap_res2.t16 sky130_fd_pr__cap_mim_m3_1 l=2 w=2
X190 GNDA.t238 GNDA.t288 ref_volt_cur_gen_dummy_magic_0.Vbe2.t6 sky130_fd_pr__pnp_05v5_W3p40L3p40
**devattr s=462400,2720
X191 VOUT-.t51 two_stage_opamp_dummy_magic_0.cap_res_X.t106 sky130_fd_pr__cap_mim_m3_1 l=2 w=2
X192 ref_volt_cur_gen_dummy_magic_0.START_UP_NFET1.t0 ref_volt_cur_gen_dummy_magic_0.START_UP.t0 ref_volt_cur_gen_dummy_magic_0.START_UP.t1 GNDA.t355 sky130_fd_pr__nfet_01v8 ad=0.2 pd=1.4 as=0.4 ps=2.8 w=1 l=10
X193 ref_volt_cur_gen_dummy_magic_0.1st_Vout_2.t1 ref_volt_cur_gen_dummy_magic_0.V_CUR_REF_REG.t4 ref_volt_cur_gen_dummy_magic_0.V_p_2.t2 GNDA.t100 sky130_fd_pr__nfet_01v8 ad=0.1 pd=0.9 as=0.1 ps=0.9 w=0.5 l=0.2
X194 two_stage_opamp_dummy_magic_0.VD1.t10 two_stage_opamp_dummy_magic_0.Vb1.t9 two_stage_opamp_dummy_magic_0.Y.t0 GNDA.t7 sky130_fd_pr__nfet_01v8 ad=0.3 pd=1.9 as=0.3 ps=1.9 w=1.5 l=0.15
X195 VOUT-.t52 two_stage_opamp_dummy_magic_0.cap_res_X.t105 sky130_fd_pr__cap_mim_m3_1 l=2 w=2
X196 VOUT+.t54 two_stage_opamp_dummy_magic_0.cap_res_Y.t102 sky130_fd_pr__cap_mim_m3_1 l=2 w=2
X197 ref_volt_cur_gen_dummy_magic_0.PFET_GATE_10uA.t6 ref_volt_cur_gen_dummy_magic_0.1st_Vout_2.t19 VDDA.t435 VDDA.t434 sky130_fd_pr__pfet_01v8 ad=0.2 pd=1.4 as=0.2 ps=1.4 w=1 l=0.2
X198 VDDA.t198 VDDA.t196 two_stage_opamp_dummy_magic_0.V_err_p.t4 VDDA.t197 sky130_fd_pr__pfet_01v8 ad=0.2 pd=1.8 as=0.1 ps=0.9 w=0.5 l=0.15
X199 VOUT-.t53 two_stage_opamp_dummy_magic_0.cap_res_X.t104 sky130_fd_pr__cap_mim_m3_1 l=2 w=2
X200 VOUT-.t54 two_stage_opamp_dummy_magic_0.cap_res_X.t103 sky130_fd_pr__cap_mim_m3_1 l=2 w=2
X201 VOUT-.t55 two_stage_opamp_dummy_magic_0.cap_res_X.t102 sky130_fd_pr__cap_mim_m3_1 l=2 w=2
X202 GNDA.t158 two_stage_opamp_dummy_magic_0.V_tail_gate.t15 two_stage_opamp_dummy_magic_0.V_p.t19 GNDA.t157 sky130_fd_pr__nfet_01v8 ad=0.5 pd=2.9 as=0.5 ps=2.9 w=2.5 l=0.15
X203 two_stage_opamp_dummy_magic_0.err_amp_out.t11 two_stage_opamp_dummy_magic_0.V_err_amp_ref.t10 two_stage_opamp_dummy_magic_0.V_err_p.t20 VDDA.t390 sky130_fd_pr__pfet_01v8 ad=0.1 pd=0.9 as=0.1 ps=0.9 w=0.5 l=0.15
X204 GNDA.t1 two_stage_opamp_dummy_magic_0.X.t37 two_stage_opamp_dummy_magic_0.V_CMFB_S1.t11 VDDA.t10 sky130_fd_pr__pfet_01v8 ad=0.4 pd=2.4 as=0.4 ps=2.4 w=2 l=0.15
X205 GNDA.t174 ref_volt_cur_gen_dummy_magic_0.NFET_GATE_10uA.t8 two_stage_opamp_dummy_magic_0.Vb3.t6 GNDA.t173 sky130_fd_pr__nfet_01v8 ad=0.2 pd=1.4 as=0.2 ps=1.4 w=1 l=0.5
X206 VDDA.t42 ref_volt_cur_gen_dummy_magic_0.V_mir1.t10 ref_volt_cur_gen_dummy_magic_0.V_mir1.t11 VDDA.t41 sky130_fd_pr__pfet_01v8 ad=0.2 pd=1.4 as=0.2 ps=1.4 w=1 l=0.2
X207 ref_volt_cur_gen_dummy_magic_0.1st_Vout_2.t20 ref_volt_cur_gen_dummy_magic_0.cap_res2.t15 sky130_fd_pr__cap_mim_m3_1 l=2 w=2
X208 VOUT+.t55 two_stage_opamp_dummy_magic_0.cap_res_Y.t101 sky130_fd_pr__cap_mim_m3_1 l=2 w=2
X209 VOUT+.t56 two_stage_opamp_dummy_magic_0.cap_res_Y.t100 sky130_fd_pr__cap_mim_m3_1 l=2 w=2
X210 VOUT+.t57 two_stage_opamp_dummy_magic_0.cap_res_Y.t99 sky130_fd_pr__cap_mim_m3_1 l=2 w=2
X211 VOUT-.t56 two_stage_opamp_dummy_magic_0.cap_res_X.t101 sky130_fd_pr__cap_mim_m3_1 l=2 w=2
X212 VOUT+.t58 two_stage_opamp_dummy_magic_0.cap_res_Y.t98 sky130_fd_pr__cap_mim_m3_1 l=2 w=2
X213 two_stage_opamp_dummy_magic_0.V_p.t31 VIN+.t2 two_stage_opamp_dummy_magic_0.VD2.t13 GNDA.t335 sky130_fd_pr__nfet_01v8 ad=0.3 pd=1.9 as=0.3 ps=1.9 w=1.5 l=0.15
X214 VOUT-.t57 two_stage_opamp_dummy_magic_0.cap_res_X.t100 sky130_fd_pr__cap_mim_m3_1 l=2 w=2
X215 two_stage_opamp_dummy_magic_0.V_p.t18 two_stage_opamp_dummy_magic_0.V_tail_gate.t16 GNDA.t24 GNDA.t23 sky130_fd_pr__nfet_01v8 ad=0.5 pd=2.9 as=0.5 ps=2.9 w=2.5 l=0.15
X216 VDDA.t299 two_stage_opamp_dummy_magic_0.Vb3.t21 two_stage_opamp_dummy_magic_0.VD4.t15 VDDA.t298 sky130_fd_pr__pfet_01v8 ad=0.7 pd=3.9 as=0.7 ps=3.9 w=3.5 l=0.2
X217 VOUT+.t12 two_stage_opamp_dummy_magic_0.Y.t32 VDDA.t15 VDDA.t14 sky130_fd_pr__pfet_01v8 ad=1.2 pd=6.4 as=1.2 ps=6.4 w=6 l=0.15
X218 two_stage_opamp_dummy_magic_0.Y.t7 two_stage_opamp_dummy_magic_0.VD4.t3 two_stage_opamp_dummy_magic_0.VD4.t5 two_stage_opamp_dummy_magic_0.VD4.t4 sky130_fd_pr__pfet_01v8 ad=0.7 pd=3.9 as=1.4 ps=7.8 w=3.5 l=0.2