* PEX produced on Sun Jul 20 03:56:35 PM CEST 2025 using /foss/tools/osic-multitool/iic-pex.sh with m=3 and s=1
* NGSPICE file created from bgr_opamp_dummy_magic_14.ext - technology: sky130A

.subckt bgr_opamp_dummy_magic_14 VDDA GNDA VOUT+ VOUT- VIN+ VIN-
X0 bgr_10_0.Vin+.t5 bgr_10_0.sky130_fd_pr__rf_pnp_05v5_W3p40L3p40_25.Emitter.t8 GNDA.t288 sky130_fd_pr__res_xhigh_po_0p35 l=2.3
X1 two_stage_opamp_dummy_magic_20_0.V_CMFB_S3.t13 two_stage_opamp_dummy_magic_20_0.Y.t25 GNDA.t303 VDDA.t415 sky130_fd_pr__pfet_01v8 ad=0.4 pd=2.4 as=0.4 ps=2.4 w=2 l=0.15
X2 GNDA.t62 VDDA.t204 VDDA.t206 VDDA.t205 sky130_fd_pr__pfet_01v8 ad=0.4 pd=2.4 as=0.8 ps=4.8 w=2 l=0.15
X3 two_stage_opamp_dummy_magic_20_0.err_amp_out.t10 two_stage_opamp_dummy_magic_20_0.err_amp_mir.t17 GNDA.t139 GNDA.t138 sky130_fd_pr__nfet_01v8 ad=0.1 pd=0.9 as=0.1 ps=0.9 w=0.5 l=0.15
X4 two_stage_opamp_dummy_magic_20_0.V_p_mir.t2 two_stage_opamp_dummy_magic_20_0.V_tail_gate.t12 GNDA.t69 GNDA.t68 sky130_fd_pr__nfet_01v8 ad=0.5 pd=2.9 as=0.5 ps=2.9 w=2.5 l=0.15
X5 two_stage_opamp_dummy_magic_20_0.VD2.t16 GNDA.t266 GNDA.t267 GNDA.t259 sky130_fd_pr__nfet_01v8 ad=0.3 pd=1.9 as=0.6 ps=3.8 w=1.5 l=0.15
X6 VOUT+.t19 two_stage_opamp_dummy_magic_20_0.cap_res_Y.t137 sky130_fd_pr__cap_mim_m3_1 l=2 w=2
X7 VDDA.t91 bgr_10_0.V_mir1.t17 bgr_10_0.1st_Vout_1.t5 VDDA.t90 sky130_fd_pr__pfet_01v8 ad=0.2 pd=1.4 as=0.2 ps=1.4 w=1 l=0.2
X8 VDDA.t203 VDDA.t201 VOUT-.t6 VDDA.t202 sky130_fd_pr__pfet_01v8 ad=2.4 pd=12.8 as=1.2 ps=6.4 w=6 l=0.15
X9 VOUT+.t20 two_stage_opamp_dummy_magic_20_0.cap_res_Y.t136 sky130_fd_pr__cap_mim_m3_1 l=2 w=2
X10 VOUT+.t21 two_stage_opamp_dummy_magic_20_0.cap_res_Y.t135 sky130_fd_pr__cap_mim_m3_1 l=2 w=2
X11 GNDA.t57 VDDA.t469 bgr_10_0.V_TOP.t6 GNDA.t26 sky130_fd_pr__nfet_01v8 ad=1.01 pd=6.15 as=1 ps=5.8 w=2.5 l=5
X12 VOUT+.t22 two_stage_opamp_dummy_magic_20_0.cap_res_Y.t134 sky130_fd_pr__cap_mim_m3_1 l=2 w=2
X13 bgr_10_0.1st_Vout_2.t11 bgr_10_0.cap_res2.t20 sky130_fd_pr__cap_mim_m3_1 l=2 w=2
X14 two_stage_opamp_dummy_magic_20_0.V_CMFB_S4.t3 GNDA.t263 GNDA.t265 GNDA.t264 sky130_fd_pr__nfet_01v8 ad=0.2 pd=1.4 as=0.4 ps=2.8 w=1 l=0.15
X15 VOUT+.t23 two_stage_opamp_dummy_magic_20_0.cap_res_Y.t133 sky130_fd_pr__cap_mim_m3_1 l=2 w=2
X16 GNDA.t71 two_stage_opamp_dummy_magic_20_0.V_tail_gate.t13 two_stage_opamp_dummy_magic_20_0.V_source.t24 GNDA.t70 sky130_fd_pr__nfet_01v8 ad=0.5 pd=2.9 as=0.5 ps=2.9 w=2.5 l=0.15
X17 two_stage_opamp_dummy_magic_20_0.V_CMFB_S4.t14 bgr_10_0.NFET_GATE_10uA.t5 GNDA.t313 GNDA.t312 sky130_fd_pr__nfet_01v8 ad=0.2 pd=1.4 as=0.2 ps=1.4 w=1 l=0.15
X18 two_stage_opamp_dummy_magic_20_0.Y.t22 two_stage_opamp_dummy_magic_20_0.Vb2.t11 two_stage_opamp_dummy_magic_20_0.VD4.t21 two_stage_opamp_dummy_magic_20_0.VD4.t20 sky130_fd_pr__pfet_01v8 ad=0.7 pd=3.9 as=0.7 ps=3.9 w=3.5 l=0.2
X19 VOUT+.t24 two_stage_opamp_dummy_magic_20_0.cap_res_Y.t132 sky130_fd_pr__cap_mim_m3_1 l=2 w=2
X20 VOUT+.t25 two_stage_opamp_dummy_magic_20_0.cap_res_Y.t131 sky130_fd_pr__cap_mim_m3_1 l=2 w=2
X21 GNDA.t119 two_stage_opamp_dummy_magic_20_0.V_tail_gate.t14 two_stage_opamp_dummy_magic_20_0.V_source.t23 GNDA.t118 sky130_fd_pr__nfet_01v8 ad=0.5 pd=2.9 as=0.5 ps=2.9 w=2.5 l=0.15
X22 a_7460_23988.t0 bgr_10_0.Vin+.t4 GNDA.t133 sky130_fd_pr__res_xhigh_po_0p35 l=6
X23 bgr_10_0.V_mir2.t4 two_stage_opamp_dummy_magic_20_0.V_err_amp_ref.t7 bgr_10_0.V_p_2.t6 GNDA.t144 sky130_fd_pr__nfet_01v8 ad=0.1 pd=0.9 as=0.1 ps=0.9 w=0.5 l=0.2
X24 VDDA.t200 VDDA.t198 VDDA.t200 VDDA.t199 sky130_fd_pr__pfet_01v8 ad=0.7 pd=3.9 as=0 ps=0 w=3.5 l=0.2
X25 VOUT+.t26 two_stage_opamp_dummy_magic_20_0.cap_res_Y.t130 sky130_fd_pr__cap_mim_m3_1 l=2 w=2
X26 bgr_10_0.1st_Vout_2.t12 bgr_10_0.cap_res2.t19 sky130_fd_pr__cap_mim_m3_1 l=2 w=2
X27 two_stage_opamp_dummy_magic_20_0.Vb1.t13 bgr_10_0.PFET_GATE_10uA.t10 VDDA.t276 VDDA.t275 sky130_fd_pr__pfet_01v8 ad=0.2 pd=1.4 as=0.2 ps=1.4 w=1 l=0.15
X28 two_stage_opamp_dummy_magic_20_0.V_err_p.t20 two_stage_opamp_dummy_magic_20_0.V_err_gate.t14 VDDA.t269 VDDA.t268 sky130_fd_pr__pfet_01v8 ad=0.1 pd=0.9 as=0.1 ps=0.9 w=0.5 l=0.15
X29 two_stage_opamp_dummy_magic_20_0.X.t23 GNDA.t261 GNDA.t262 GNDA.t173 sky130_fd_pr__nfet_01v8 ad=0.3 pd=1.9 as=0.6 ps=3.8 w=1.5 l=0.15
X30 two_stage_opamp_dummy_magic_20_0.X.t14 two_stage_opamp_dummy_magic_20_0.Vb1.t14 two_stage_opamp_dummy_magic_20_0.VD1.t14 GNDA.t40 sky130_fd_pr__nfet_01v8 ad=0.3 pd=1.9 as=0.3 ps=1.9 w=1.5 l=0.15
X31 GNDA.t137 a_6930_22564.t0 GNDA.t36 sky130_fd_pr__res_xhigh_po_0p35 l=4.33
X32 VDDA.t197 VDDA.t195 bgr_10_0.V_TOP.t5 VDDA.t196 sky130_fd_pr__pfet_01v8 ad=0.4 pd=2.8 as=0.2 ps=1.4 w=1 l=0.2
X33 VOUT-.t19 two_stage_opamp_dummy_magic_20_0.cap_res_X.t138 sky130_fd_pr__cap_mim_m3_1 l=2 w=2
X34 VOUT-.t20 two_stage_opamp_dummy_magic_20_0.cap_res_X.t137 sky130_fd_pr__cap_mim_m3_1 l=2 w=2
X35 VOUT-.t21 two_stage_opamp_dummy_magic_20_0.cap_res_X.t136 sky130_fd_pr__cap_mim_m3_1 l=2 w=2
X36 VOUT+.t27 two_stage_opamp_dummy_magic_20_0.cap_res_Y.t129 sky130_fd_pr__cap_mim_m3_1 l=2 w=2
X37 bgr_10_0.1st_Vout_1.t11 bgr_10_0.cap_res1.t20 sky130_fd_pr__cap_mim_m3_1 l=2 w=2
X38 VOUT+.t28 two_stage_opamp_dummy_magic_20_0.cap_res_Y.t128 sky130_fd_pr__cap_mim_m3_1 l=2 w=2
X39 VOUT+.t29 two_stage_opamp_dummy_magic_20_0.cap_res_Y.t127 sky130_fd_pr__cap_mim_m3_1 l=2 w=2
X40 two_stage_opamp_dummy_magic_20_0.V_CMFB_S1.t16 bgr_10_0.PFET_GATE_10uA.t11 VDDA.t338 VDDA.t337 sky130_fd_pr__pfet_01v8 ad=0.2 pd=1.4 as=0.2 ps=1.4 w=1 l=0.15
X41 VDDA.t414 two_stage_opamp_dummy_magic_20_0.Y.t26 VOUT+.t16 VDDA.t413 sky130_fd_pr__pfet_01v8 ad=1.2 pd=6.4 as=1.2 ps=6.4 w=6 l=0.15
X42 VOUT-.t22 two_stage_opamp_dummy_magic_20_0.cap_res_X.t135 sky130_fd_pr__cap_mim_m3_1 l=2 w=2
X43 VDDA.t443 bgr_10_0.PFET_GATE_10uA.t12 two_stage_opamp_dummy_magic_20_0.V_CMFB_S1.t15 VDDA.t442 sky130_fd_pr__pfet_01v8 ad=0.2 pd=1.4 as=0.2 ps=1.4 w=1 l=0.15
X44 two_stage_opamp_dummy_magic_20_0.Y.t21 GNDA.t258 GNDA.t260 GNDA.t259 sky130_fd_pr__nfet_01v8 ad=0.3 pd=1.9 as=0.6 ps=3.8 w=1.5 l=0.15
X45 VOUT+.t30 two_stage_opamp_dummy_magic_20_0.cap_res_Y.t126 sky130_fd_pr__cap_mim_m3_1 l=2 w=2
X46 bgr_10_0.cap_res2.t0 bgr_10_0.PFET_GATE_10uA.t0 GNDA.t55 sky130_fd_pr__res_high_po_0p35 l=2.05
X47 VDDA.t73 bgr_10_0.V_mir2.t17 bgr_10_0.1st_Vout_2.t3 VDDA.t72 sky130_fd_pr__pfet_01v8 ad=0.2 pd=1.4 as=0.2 ps=1.4 w=1 l=0.2
X48 bgr_10_0.1st_Vout_1.t12 bgr_10_0.cap_res1.t19 sky130_fd_pr__cap_mim_m3_1 l=2 w=2
X49 VDDA.t412 two_stage_opamp_dummy_magic_20_0.Y.t27 two_stage_opamp_dummy_magic_20_0.V_CMFB_S4.t13 GNDA.t304 sky130_fd_pr__nfet_01v8 ad=0.6 pd=3.4 as=0.6 ps=3.4 w=3 l=0.15
X50 VDDA.t85 bgr_10_0.1st_Vout_1.t13 bgr_10_0.V_TOP.t12 VDDA.t84 sky130_fd_pr__pfet_01v8 ad=0.2 pd=1.4 as=0.2 ps=1.4 w=1 l=0.2
X51 two_stage_opamp_dummy_magic_20_0.err_amp_mir.t1 two_stage_opamp_dummy_magic_20_0.V_tot.t4 two_stage_opamp_dummy_magic_20_0.V_err_p.t1 VDDA.t31 sky130_fd_pr__pfet_01v8 ad=0.1 pd=0.9 as=0.1 ps=0.9 w=0.5 l=0.15
X52 VOUT+.t31 two_stage_opamp_dummy_magic_20_0.cap_res_Y.t125 sky130_fd_pr__cap_mim_m3_1 l=2 w=2
X53 VOUT-.t23 two_stage_opamp_dummy_magic_20_0.cap_res_X.t134 sky130_fd_pr__cap_mim_m3_1 l=2 w=2
X54 two_stage_opamp_dummy_magic_20_0.V_CMFB_S2.t12 two_stage_opamp_dummy_magic_20_0.X.t25 VDDA.t240 GNDA.t140 sky130_fd_pr__nfet_01v8 ad=0.6 pd=3.4 as=0.6 ps=3.4 w=3 l=0.15
X55 bgr_10_0.START_UP.t1 bgr_10_0.START_UP.t0 bgr_10_0.START_UP_NFET1.t0 GNDA.t21 sky130_fd_pr__nfet_01v8 ad=0.4 pd=2.8 as=0.2 ps=1.4 w=1 l=10
X56 two_stage_opamp_dummy_magic_20_0.Y.t16 two_stage_opamp_dummy_magic_20_0.Vb2.t12 two_stage_opamp_dummy_magic_20_0.VD4.t19 two_stage_opamp_dummy_magic_20_0.VD4.t18 sky130_fd_pr__pfet_01v8 ad=0.7 pd=3.9 as=0.7 ps=3.9 w=3.5 l=0.2
X57 VOUT-.t24 two_stage_opamp_dummy_magic_20_0.cap_res_X.t133 sky130_fd_pr__cap_mim_m3_1 l=2 w=2
X58 two_stage_opamp_dummy_magic_20_0.err_amp_mir.t15 two_stage_opamp_dummy_magic_20_0.err_amp_mir.t14 GNDA.t128 GNDA.t127 sky130_fd_pr__nfet_01v8 ad=0.1 pd=0.9 as=0.1 ps=0.9 w=0.5 l=0.15
X59 bgr_10_0.V_TOP.t14 VDDA.t35 sky130_fd_pr__cap_mim_m3_1 l=2 w=2
X60 VOUT-.t25 two_stage_opamp_dummy_magic_20_0.cap_res_X.t132 sky130_fd_pr__cap_mim_m3_1 l=2 w=2
X61 two_stage_opamp_dummy_magic_20_0.V_err_gate.t3 two_stage_opamp_dummy_magic_20_0.V_err_amp_ref.t8 two_stage_opamp_dummy_magic_20_0.V_er_mir_p.t4 VDDA.t433 sky130_fd_pr__pfet_01v8 ad=0.1 pd=0.9 as=0.1 ps=0.9 w=0.5 l=0.15
X62 two_stage_opamp_dummy_magic_20_0.VD1.t17 VIN-.t0 two_stage_opamp_dummy_magic_20_0.V_source.t33 GNDA.t167 sky130_fd_pr__nfet_01v8 ad=0.3 pd=1.9 as=0.3 ps=1.9 w=1.5 l=0.15
X63 VOUT-.t26 two_stage_opamp_dummy_magic_20_0.cap_res_X.t131 sky130_fd_pr__cap_mim_m3_1 l=2 w=2
X64 VOUT+.t32 two_stage_opamp_dummy_magic_20_0.cap_res_Y.t124 sky130_fd_pr__cap_mim_m3_1 l=2 w=2
X65 VOUT-.t27 two_stage_opamp_dummy_magic_20_0.cap_res_X.t130 sky130_fd_pr__cap_mim_m3_1 l=2 w=2
X66 VOUT-.t28 two_stage_opamp_dummy_magic_20_0.cap_res_X.t129 sky130_fd_pr__cap_mim_m3_1 l=2 w=2
X67 VOUT-.t29 two_stage_opamp_dummy_magic_20_0.cap_res_X.t128 sky130_fd_pr__cap_mim_m3_1 l=2 w=2
X68 VOUT+.t15 two_stage_opamp_dummy_magic_20_0.Y.t28 VDDA.t411 VDDA.t410 sky130_fd_pr__pfet_01v8 ad=1.2 pd=6.4 as=1.2 ps=6.4 w=6 l=0.15
X69 two_stage_opamp_dummy_magic_20_0.V_source.t22 two_stage_opamp_dummy_magic_20_0.V_tail_gate.t15 GNDA.t121 GNDA.t120 sky130_fd_pr__nfet_01v8 ad=0.5 pd=2.9 as=0.5 ps=2.9 w=2.5 l=0.15
X70 bgr_10_0.V_mir2.t16 bgr_10_0.V_mir2.t15 VDDA.t19 VDDA.t18 sky130_fd_pr__pfet_01v8 ad=0.2 pd=1.4 as=0.2 ps=1.4 w=1 l=0.2
X71 two_stage_opamp_dummy_magic_20_0.VD3.t31 two_stage_opamp_dummy_magic_20_0.Vb3.t8 VDDA.t375 VDDA.t374 sky130_fd_pr__pfet_01v8 ad=0.7 pd=3.9 as=0.7 ps=3.9 w=3.5 l=0.2
X72 VOUT+.t33 two_stage_opamp_dummy_magic_20_0.cap_res_Y.t123 sky130_fd_pr__cap_mim_m3_1 l=2 w=2
X73 VDDA.t285 bgr_10_0.V_mir1.t14 bgr_10_0.V_mir1.t15 VDDA.t284 sky130_fd_pr__pfet_01v8 ad=0.2 pd=1.4 as=0.2 ps=1.4 w=1 l=0.2
X74 bgr_10_0.1st_Vout_1.t14 bgr_10_0.cap_res1.t18 sky130_fd_pr__cap_mim_m3_1 l=2 w=2
X75 VDDA.t239 two_stage_opamp_dummy_magic_20_0.X.t26 VOUT-.t8 VDDA.t238 sky130_fd_pr__pfet_01v8 ad=1.2 pd=6.4 as=1.2 ps=6.4 w=6 l=0.15
X76 two_stage_opamp_dummy_magic_20_0.VD2.t9 VIN+.t0 two_stage_opamp_dummy_magic_20_0.V_source.t26 GNDA.t17 sky130_fd_pr__nfet_01v8 ad=0.3 pd=1.9 as=0.3 ps=1.9 w=1.5 l=0.15
X77 VDDA.t298 two_stage_opamp_dummy_magic_20_0.V_err_gate.t15 two_stage_opamp_dummy_magic_20_0.V_er_mir_p.t19 VDDA.t297 sky130_fd_pr__pfet_01v8 ad=0.1 pd=0.9 as=0.1 ps=0.9 w=0.5 l=0.15
X78 bgr_10_0.V_TOP.t15 VDDA.t246 sky130_fd_pr__cap_mim_m3_1 l=2 w=2
X79 VOUT-.t30 two_stage_opamp_dummy_magic_20_0.cap_res_X.t127 sky130_fd_pr__cap_mim_m3_1 l=2 w=2
X80 bgr_10_0.1st_Vout_2.t2 bgr_10_0.V_CUR_REF_REG.t3 bgr_10_0.V_p_2.t2 GNDA.t22 sky130_fd_pr__nfet_01v8 ad=0.1 pd=0.9 as=0.1 ps=0.9 w=0.5 l=0.2
X81 two_stage_opamp_dummy_magic_20_0.Vb2_2.t2 two_stage_opamp_dummy_magic_20_0.Vb2.t13 VDDA.t242 VDDA.t241 sky130_fd_pr__pfet_01v8 ad=0.36 pd=2.2 as=0.36 ps=2.2 w=1.8 l=0.2
X82 VOUT+.t34 two_stage_opamp_dummy_magic_20_0.cap_res_Y.t122 sky130_fd_pr__cap_mim_m3_1 l=2 w=2
X83 bgr_10_0.V_TOP.t16 VDDA.t247 sky130_fd_pr__cap_mim_m3_1 l=2 w=2
X84 GNDA.t154 two_stage_opamp_dummy_magic_20_0.V_tail_gate.t16 two_stage_opamp_dummy_magic_20_0.V_source.t21 GNDA.t153 sky130_fd_pr__nfet_01v8 ad=0.5 pd=2.9 as=0.5 ps=2.9 w=2.5 l=0.15
X85 two_stage_opamp_dummy_magic_20_0.V_tail_gate.t11 bgr_10_0.PFET_GATE_10uA.t13 VDDA.t458 VDDA.t457 sky130_fd_pr__pfet_01v8 ad=0.2 pd=1.4 as=0.2 ps=1.4 w=1 l=0.15
X86 VDDA.t263 bgr_10_0.PFET_GATE_10uA.t14 two_stage_opamp_dummy_magic_20_0.V_tail_gate.t6 VDDA.t262 sky130_fd_pr__pfet_01v8 ad=0.2 pd=1.4 as=0.2 ps=1.4 w=1 l=0.15
X87 GNDA.t257 GNDA.t256 two_stage_opamp_dummy_magic_20_0.VD1.t19 GNDA.t249 sky130_fd_pr__nfet_01v8 ad=0.6 pd=3.8 as=0.3 ps=1.9 w=1.5 l=0.15
X88 VOUT-.t31 two_stage_opamp_dummy_magic_20_0.cap_res_X.t126 sky130_fd_pr__cap_mim_m3_1 l=2 w=2
X89 two_stage_opamp_dummy_magic_20_0.V_err_p.t19 two_stage_opamp_dummy_magic_20_0.V_err_gate.t16 VDDA.t447 VDDA.t446 sky130_fd_pr__pfet_01v8 ad=0.1 pd=0.9 as=0.1 ps=0.9 w=0.5 l=0.15
X90 VOUT-.t32 two_stage_opamp_dummy_magic_20_0.cap_res_X.t125 sky130_fd_pr__cap_mim_m3_1 l=2 w=2
X91 GNDA.t255 GNDA.t253 VOUT+.t5 GNDA.t254 sky130_fd_pr__nfet_01v8 ad=2.8 pd=14.8 as=1.4 ps=7.4 w=7 l=0.6
X92 bgr_10_0.Vin-.t5 bgr_10_0.V_TOP.t17 VDDA.t46 VDDA.t45 sky130_fd_pr__pfet_01v8 ad=0.6 pd=3.4 as=0.6 ps=3.4 w=3 l=0.5
X93 bgr_10_0.PFET_GATE_10uA.t9 bgr_10_0.1st_Vout_2.t13 VDDA.t314 VDDA.t313 sky130_fd_pr__pfet_01v8 ad=0.2 pd=1.4 as=0.2 ps=1.4 w=1 l=0.2
X94 VOUT+.t35 two_stage_opamp_dummy_magic_20_0.cap_res_Y.t121 sky130_fd_pr__cap_mim_m3_1 l=2 w=2
X95 VOUT-.t33 two_stage_opamp_dummy_magic_20_0.cap_res_X.t124 sky130_fd_pr__cap_mim_m3_1 l=2 w=2
X96 two_stage_opamp_dummy_magic_20_0.X.t17 two_stage_opamp_dummy_magic_20_0.Vb1.t15 two_stage_opamp_dummy_magic_20_0.VD1.t13 GNDA.t167 sky130_fd_pr__nfet_01v8 ad=0.3 pd=1.9 as=0.3 ps=1.9 w=1.5 l=0.15
X97 two_stage_opamp_dummy_magic_20_0.VD3.t37 two_stage_opamp_dummy_magic_20_0.VD3.t35 two_stage_opamp_dummy_magic_20_0.X.t10 two_stage_opamp_dummy_magic_20_0.VD3.t36 sky130_fd_pr__pfet_01v8 ad=1.4 pd=7.8 as=0.7 ps=3.9 w=3.5 l=0.2
X98 bgr_10_0.1st_Vout_1.t10 bgr_10_0.Vin+.t6 bgr_10_0.V_p_1.t10 GNDA.t293 sky130_fd_pr__nfet_01v8 ad=0.1 pd=0.9 as=0.1 ps=0.9 w=0.5 l=0.2
X99 VDDA.t194 VDDA.t192 GNDA.t63 VDDA.t193 sky130_fd_pr__pfet_01v8 ad=0.8 pd=4.8 as=0.4 ps=2.4 w=2 l=0.15
X100 VOUT+.t36 two_stage_opamp_dummy_magic_20_0.cap_res_Y.t120 sky130_fd_pr__cap_mim_m3_1 l=2 w=2
X101 GNDA.t59 VDDA.t470 bgr_10_0.V_p_2.t8 GNDA.t58 sky130_fd_pr__nfet_01v8 ad=1 pd=5.8 as=1 ps=5.8 w=2.5 l=5
X102 two_stage_opamp_dummy_magic_20_0.VD3.t30 two_stage_opamp_dummy_magic_20_0.Vb3.t9 VDDA.t366 VDDA.t365 sky130_fd_pr__pfet_01v8 ad=0.7 pd=3.9 as=0.7 ps=3.9 w=3.5 l=0.2
X103 GNDA.t252 GNDA.t251 two_stage_opamp_dummy_magic_20_0.VD2.t15 GNDA.t246 sky130_fd_pr__nfet_01v8 ad=0.6 pd=3.8 as=0.3 ps=1.9 w=1.5 l=0.15
X104 a_5310_4968.t0 two_stage_opamp_dummy_magic_20_0.V_tot.t2 GNDA.t54 sky130_fd_pr__res_xhigh_po_0p35 l=1.75
X105 VOUT-.t34 two_stage_opamp_dummy_magic_20_0.cap_res_X.t123 sky130_fd_pr__cap_mim_m3_1 l=2 w=2
X106 bgr_10_0.V_TOP.t18 VDDA.t47 sky130_fd_pr__cap_mim_m3_1 l=2 w=2
X107 VDDA.t316 bgr_10_0.1st_Vout_2.t14 bgr_10_0.PFET_GATE_10uA.t8 VDDA.t315 sky130_fd_pr__pfet_01v8 ad=0.2 pd=1.4 as=0.2 ps=1.4 w=1 l=0.2
X108 two_stage_opamp_dummy_magic_20_0.Y.t1 two_stage_opamp_dummy_magic_20_0.Vb1.t16 two_stage_opamp_dummy_magic_20_0.VD2.t3 GNDA.t17 sky130_fd_pr__nfet_01v8 ad=0.3 pd=1.9 as=0.3 ps=1.9 w=1.5 l=0.15
X109 two_stage_opamp_dummy_magic_20_0.err_amp_out.t11 two_stage_opamp_dummy_magic_20_0.V_err_amp_ref.t9 two_stage_opamp_dummy_magic_20_0.V_err_p.t6 VDDA.t450 sky130_fd_pr__pfet_01v8 ad=0.1 pd=0.9 as=0.1 ps=0.9 w=0.5 l=0.15
X110 VDDA.t408 two_stage_opamp_dummy_magic_20_0.Y.t29 two_stage_opamp_dummy_magic_20_0.V_CMFB_S4.t12 GNDA.t305 sky130_fd_pr__nfet_01v8 ad=0.6 pd=3.4 as=0.6 ps=3.4 w=3 l=0.15
X111 a_14560_4968.t1 two_stage_opamp_dummy_magic_20_0.V_CMFB_S2.t13 GNDA.t136 sky130_fd_pr__res_xhigh_po_0p35 l=1.75
X112 VOUT+.t37 two_stage_opamp_dummy_magic_20_0.cap_res_Y.t119 sky130_fd_pr__cap_mim_m3_1 l=2 w=2
X113 two_stage_opamp_dummy_magic_20_0.V_CMFB_S2.t11 two_stage_opamp_dummy_magic_20_0.X.t27 VDDA.t16 GNDA.t10 sky130_fd_pr__nfet_01v8 ad=0.6 pd=3.4 as=0.6 ps=3.4 w=3 l=0.15
X114 bgr_10_0.V_TOP.t19 VDDA.t42 sky130_fd_pr__cap_mim_m3_1 l=2 w=2
X115 bgr_10_0.V_TOP.t4 VDDA.t189 VDDA.t191 VDDA.t190 sky130_fd_pr__pfet_01v8 ad=0.2 pd=1.4 as=0.4 ps=2.8 w=1 l=0.15
X116 VOUT-.t35 two_stage_opamp_dummy_magic_20_0.cap_res_X.t122 sky130_fd_pr__cap_mim_m3_1 l=2 w=2
X117 GNDA.t123 bgr_10_0.NFET_GATE_10uA.t6 two_stage_opamp_dummy_magic_20_0.Vb3.t5 GNDA.t122 sky130_fd_pr__nfet_01v8 ad=0.2 pd=1.4 as=0.2 ps=1.4 w=1 l=0.15
X118 VOUT-.t36 two_stage_opamp_dummy_magic_20_0.cap_res_X.t121 sky130_fd_pr__cap_mim_m3_1 l=2 w=2
X119 bgr_10_0.1st_Vout_1.t7 bgr_10_0.Vin+.t7 bgr_10_0.V_p_1.t9 GNDA.t292 sky130_fd_pr__nfet_01v8 ad=0.2 pd=1.8 as=0.1 ps=0.9 w=0.5 l=0.2
X120 two_stage_opamp_dummy_magic_20_0.V_err_amp_ref.t6 bgr_10_0.V_TOP.t20 VDDA.t44 VDDA.t43 sky130_fd_pr__pfet_01v8 ad=0.6 pd=3.4 as=0.6 ps=3.4 w=3 l=0.5
X121 VOUT-.t37 two_stage_opamp_dummy_magic_20_0.cap_res_X.t120 sky130_fd_pr__cap_mim_m3_1 l=2 w=2
X122 VOUT-.t38 two_stage_opamp_dummy_magic_20_0.cap_res_X.t119 sky130_fd_pr__cap_mim_m3_1 l=2 w=2
X123 VOUT-.t39 two_stage_opamp_dummy_magic_20_0.cap_res_X.t118 sky130_fd_pr__cap_mim_m3_1 l=2 w=2
X124 bgr_10_0.1st_Vout_2.t15 bgr_10_0.cap_res2.t18 sky130_fd_pr__cap_mim_m3_1 l=2 w=2
X125 two_stage_opamp_dummy_magic_20_0.V_err_gate.t0 two_stage_opamp_dummy_magic_20_0.V_tot.t5 two_stage_opamp_dummy_magic_20_0.V_er_mir_p.t9 VDDA.t2 sky130_fd_pr__pfet_01v8 ad=0.1 pd=0.9 as=0.1 ps=0.9 w=0.5 l=0.15
X126 GNDA.t250 GNDA.t248 two_stage_opamp_dummy_magic_20_0.X.t22 GNDA.t249 sky130_fd_pr__nfet_01v8 ad=0.6 pd=3.8 as=0.3 ps=1.9 w=1.5 l=0.15
X127 VOUT+.t38 two_stage_opamp_dummy_magic_20_0.cap_res_Y.t118 sky130_fd_pr__cap_mim_m3_1 l=2 w=2
X128 VOUT+.t39 two_stage_opamp_dummy_magic_20_0.cap_res_Y.t117 sky130_fd_pr__cap_mim_m3_1 l=2 w=2
X129 VDDA.t68 bgr_10_0.1st_Vout_1.t15 bgr_10_0.V_TOP.t11 VDDA.t67 sky130_fd_pr__pfet_01v8 ad=0.2 pd=1.4 as=0.2 ps=1.4 w=1 l=0.2
X130 VOUT+.t40 two_stage_opamp_dummy_magic_20_0.cap_res_Y.t116 sky130_fd_pr__cap_mim_m3_1 l=2 w=2
X131 two_stage_opamp_dummy_magic_20_0.V_CMFB_S3.t12 two_stage_opamp_dummy_magic_20_0.Y.t30 GNDA.t306 VDDA.t409 sky130_fd_pr__pfet_01v8 ad=0.4 pd=2.4 as=0.4 ps=2.4 w=2 l=0.15
X132 VOUT+.t41 two_stage_opamp_dummy_magic_20_0.cap_res_Y.t115 sky130_fd_pr__cap_mim_m3_1 l=2 w=2
X133 VOUT-.t18 two_stage_opamp_dummy_magic_20_0.V_b_2nd_stage.t2 GNDA.t296 GNDA.t295 sky130_fd_pr__nfet_01v8 ad=1.4 pd=7.4 as=1.4 ps=7.4 w=7 l=0.6
X134 VOUT+.t42 two_stage_opamp_dummy_magic_20_0.cap_res_Y.t114 sky130_fd_pr__cap_mim_m3_1 l=2 w=2
X135 a_12530_23988.t0 bgr_10_0.Vin-.t6 GNDA.t135 sky130_fd_pr__res_xhigh_po_0p35 l=6
X136 VOUT+.t14 two_stage_opamp_dummy_magic_20_0.Y.t31 VDDA.t407 VDDA.t406 sky130_fd_pr__pfet_01v8 ad=1.2 pd=6.4 as=1.2 ps=6.4 w=6 l=0.15
X137 two_stage_opamp_dummy_magic_20_0.V_source.t20 two_stage_opamp_dummy_magic_20_0.V_tail_gate.t17 GNDA.t156 GNDA.t155 sky130_fd_pr__nfet_01v8 ad=0.5 pd=2.9 as=0.5 ps=2.9 w=2.5 l=0.15
X138 VDDA.t51 two_stage_opamp_dummy_magic_20_0.X.t28 VOUT-.t2 VDDA.t50 sky130_fd_pr__pfet_01v8 ad=1.2 pd=6.4 as=1.2 ps=6.4 w=6 l=0.15
X139 GNDA.t247 GNDA.t245 two_stage_opamp_dummy_magic_20_0.Y.t20 GNDA.t246 sky130_fd_pr__nfet_01v8 ad=0.6 pd=3.8 as=0.3 ps=1.9 w=1.5 l=0.15
X140 two_stage_opamp_dummy_magic_20_0.VD4.t23 VDDA.t179 VDDA.t181 VDDA.t180 sky130_fd_pr__pfet_01v8 ad=0.7 pd=3.9 as=1.4 ps=7.8 w=3.5 l=0.2
X141 GNDA.t300 bgr_10_0.NFET_GATE_10uA.t7 two_stage_opamp_dummy_magic_20_0.Vb2.t8 GNDA.t299 sky130_fd_pr__nfet_01v8 ad=0.2 pd=1.4 as=0.2 ps=1.4 w=1 l=0.15
X142 GNDA.t77 bgr_10_0.NFET_GATE_10uA.t8 two_stage_opamp_dummy_magic_20_0.Vb2.t7 GNDA.t76 sky130_fd_pr__nfet_01v8 ad=0.2 pd=1.4 as=0.2 ps=1.4 w=1 l=0.15
X143 bgr_10_0.1st_Vout_2.t1 bgr_10_0.V_CUR_REF_REG.t4 bgr_10_0.V_p_2.t1 GNDA.t11 sky130_fd_pr__nfet_01v8 ad=0.1 pd=0.9 as=0.1 ps=0.9 w=0.5 l=0.2
X144 VDDA.t460 two_stage_opamp_dummy_magic_20_0.V_err_gate.t17 two_stage_opamp_dummy_magic_20_0.V_err_p.t18 VDDA.t459 sky130_fd_pr__pfet_01v8 ad=0.1 pd=0.9 as=0.1 ps=0.9 w=0.5 l=0.15
X145 two_stage_opamp_dummy_magic_20_0.V_CMFB_S2.t2 bgr_10_0.NFET_GATE_10uA.t9 GNDA.t281 GNDA.t280 sky130_fd_pr__nfet_01v8 ad=0.2 pd=1.4 as=0.2 ps=1.4 w=1 l=0.15
X146 two_stage_opamp_dummy_magic_20_0.VD4.t17 two_stage_opamp_dummy_magic_20_0.Vb2.t14 two_stage_opamp_dummy_magic_20_0.Y.t6 two_stage_opamp_dummy_magic_20_0.VD4.t16 sky130_fd_pr__pfet_01v8 ad=0.7 pd=3.9 as=0.7 ps=3.9 w=3.5 l=0.2
X147 VDDA.t188 VDDA.t186 two_stage_opamp_dummy_magic_20_0.V_err_amp_ref.t2 VDDA.t187 sky130_fd_pr__pfet_01v8 ad=1.2 pd=6.8 as=0.6 ps=3.4 w=3 l=0.5
X148 VOUT-.t40 two_stage_opamp_dummy_magic_20_0.cap_res_X.t117 sky130_fd_pr__cap_mim_m3_1 l=2 w=2
X149 GNDA.t47 two_stage_opamp_dummy_magic_20_0.V_tail_gate.t18 two_stage_opamp_dummy_magic_20_0.V_source.t19 GNDA.t46 sky130_fd_pr__nfet_01v8 ad=0.5 pd=2.9 as=0.5 ps=2.9 w=2.5 l=0.15
X150 VDDA.t213 bgr_10_0.PFET_GATE_10uA.t15 two_stage_opamp_dummy_magic_20_0.V_tail_gate.t3 VDDA.t212 sky130_fd_pr__pfet_01v8 ad=0.2 pd=1.4 as=0.2 ps=1.4 w=1 l=0.15
X151 VOUT-.t41 two_stage_opamp_dummy_magic_20_0.cap_res_X.t116 sky130_fd_pr__cap_mim_m3_1 l=2 w=2
X152 bgr_10_0.1st_Vout_2.t16 bgr_10_0.cap_res2.t17 sky130_fd_pr__cap_mim_m3_1 l=2 w=2
X153 two_stage_opamp_dummy_magic_20_0.V_tail_gate.t5 bgr_10_0.PFET_GATE_10uA.t16 VDDA.t220 VDDA.t219 sky130_fd_pr__pfet_01v8 ad=0.2 pd=1.4 as=0.2 ps=1.4 w=1 l=0.15
X154 two_stage_opamp_dummy_magic_20_0.VD3.t29 two_stage_opamp_dummy_magic_20_0.Vb3.t10 VDDA.t216 VDDA.t215 sky130_fd_pr__pfet_01v8 ad=0.7 pd=3.9 as=0.7 ps=3.9 w=3.5 l=0.2
X155 VOUT-.t17 two_stage_opamp_dummy_magic_20_0.V_b_2nd_stage.t3 GNDA.t287 GNDA.t286 sky130_fd_pr__nfet_01v8 ad=1.4 pd=7.4 as=1.4 ps=7.4 w=7 l=0.6
X156 VDDA.t185 VDDA.t182 VDDA.t184 VDDA.t183 sky130_fd_pr__pfet_01v8 ad=0.72 pd=4.4 as=0 ps=0 w=1.8 l=0.2
X157 VOUT-.t42 two_stage_opamp_dummy_magic_20_0.cap_res_X.t115 sky130_fd_pr__cap_mim_m3_1 l=2 w=2
X158 VOUT+.t43 two_stage_opamp_dummy_magic_20_0.cap_res_Y.t113 sky130_fd_pr__cap_mim_m3_1 l=2 w=2
X159 two_stage_opamp_dummy_magic_20_0.V_source.t38 VIN-.t1 two_stage_opamp_dummy_magic_20_0.VD1.t20 GNDA.t147 sky130_fd_pr__nfet_01v8 ad=0.3 pd=1.9 as=0.3 ps=1.9 w=1.5 l=0.15
X160 two_stage_opamp_dummy_magic_20_0.V_er_mir_p.t18 two_stage_opamp_dummy_magic_20_0.V_err_gate.t18 VDDA.t267 VDDA.t266 sky130_fd_pr__pfet_01v8 ad=0.1 pd=0.9 as=0.1 ps=0.9 w=0.5 l=0.15
X161 VOUT-.t43 two_stage_opamp_dummy_magic_20_0.cap_res_X.t114 sky130_fd_pr__cap_mim_m3_1 l=2 w=2
X162 VOUT+.t44 two_stage_opamp_dummy_magic_20_0.cap_res_Y.t112 sky130_fd_pr__cap_mim_m3_1 l=2 w=2
X163 VOUT+.t45 two_stage_opamp_dummy_magic_20_0.cap_res_Y.t111 sky130_fd_pr__cap_mim_m3_1 l=2 w=2
X164 bgr_10_0.1st_Vout_1.t16 bgr_10_0.cap_res1.t17 sky130_fd_pr__cap_mim_m3_1 l=2 w=2
X165 GNDA.t307 two_stage_opamp_dummy_magic_20_0.Y.t32 two_stage_opamp_dummy_magic_20_0.V_CMFB_S3.t11 VDDA.t405 sky130_fd_pr__pfet_01v8 ad=0.4 pd=2.4 as=0.4 ps=2.4 w=2 l=0.15
X166 VOUT+.t4 GNDA.t242 GNDA.t244 GNDA.t243 sky130_fd_pr__nfet_01v8 ad=1.4 pd=7.4 as=2.8 ps=14.8 w=7 l=0.6
X167 two_stage_opamp_dummy_magic_20_0.V_CMFB_S1.t11 two_stage_opamp_dummy_magic_20_0.X.t29 GNDA.t323 VDDA.t428 sky130_fd_pr__pfet_01v8 ad=0.4 pd=2.4 as=0.4 ps=2.4 w=2 l=0.15
X168 GNDA.t49 two_stage_opamp_dummy_magic_20_0.V_tail_gate.t19 two_stage_opamp_dummy_magic_20_0.V_source.t18 GNDA.t48 sky130_fd_pr__nfet_01v8 ad=0.5 pd=2.9 as=0.5 ps=2.9 w=2.5 l=0.15
X169 a_14680_4968.t0 two_stage_opamp_dummy_magic_20_0.V_tot.t1 GNDA.t20 sky130_fd_pr__res_xhigh_po_0p35 l=1.75
X170 VDDA.t66 bgr_10_0.V_mir1.t12 bgr_10_0.V_mir1.t13 VDDA.t65 sky130_fd_pr__pfet_01v8 ad=0.2 pd=1.4 as=0.2 ps=1.4 w=1 l=0.2
X171 GNDA.t134 a_7580_22380.t0 GNDA.t133 sky130_fd_pr__res_xhigh_po_0p35 l=6
X172 two_stage_opamp_dummy_magic_20_0.V_source.t4 VIN+.t1 two_stage_opamp_dummy_magic_20_0.VD2.t4 GNDA.t37 sky130_fd_pr__nfet_01v8 ad=0.3 pd=1.9 as=0.3 ps=1.9 w=1.5 l=0.15
X173 VOUT-.t44 two_stage_opamp_dummy_magic_20_0.cap_res_X.t113 sky130_fd_pr__cap_mim_m3_1 l=2 w=2
X174 VOUT-.t45 two_stage_opamp_dummy_magic_20_0.cap_res_X.t112 sky130_fd_pr__cap_mim_m3_1 l=2 w=2
X175 VOUT+.t46 two_stage_opamp_dummy_magic_20_0.cap_res_Y.t110 sky130_fd_pr__cap_mim_m3_1 l=2 w=2
X176 VOUT-.t46 two_stage_opamp_dummy_magic_20_0.cap_res_X.t111 sky130_fd_pr__cap_mim_m3_1 l=2 w=2
X177 VOUT-.t47 two_stage_opamp_dummy_magic_20_0.cap_res_X.t110 sky130_fd_pr__cap_mim_m3_1 l=2 w=2
X178 VOUT-.t48 two_stage_opamp_dummy_magic_20_0.cap_res_X.t109 sky130_fd_pr__cap_mim_m3_1 l=2 w=2
X179 two_stage_opamp_dummy_magic_20_0.VD4.t15 two_stage_opamp_dummy_magic_20_0.Vb2.t15 two_stage_opamp_dummy_magic_20_0.Y.t8 two_stage_opamp_dummy_magic_20_0.VD4.t14 sky130_fd_pr__pfet_01v8 ad=0.7 pd=3.9 as=0.7 ps=3.9 w=3.5 l=0.2
X180 two_stage_opamp_dummy_magic_20_0.Vb1.t3 two_stage_opamp_dummy_magic_20_0.Vb1.t2 two_stage_opamp_dummy_magic_20_0.Vb1_2.t4 GNDA.t132 sky130_fd_pr__nfet_01v8 ad=0.3 pd=1.9 as=0.3 ps=1.9 w=1.5 l=0.15
X181 bgr_10_0.V_TOP.t21 VDDA.t350 sky130_fd_pr__cap_mim_m3_1 l=2 w=2
X182 two_stage_opamp_dummy_magic_20_0.err_amp_mir.t2 VDDA.t176 VDDA.t178 VDDA.t177 sky130_fd_pr__pfet_01v8 ad=0.1 pd=0.9 as=0.2 ps=1.8 w=0.5 l=0.15
X183 a_5190_4968.t0 two_stage_opamp_dummy_magic_20_0.V_tot.t0 GNDA.t19 sky130_fd_pr__res_xhigh_po_0p35 l=1.75
X184 VDDA.t376 two_stage_opamp_dummy_magic_20_0.Y.t33 two_stage_opamp_dummy_magic_20_0.V_CMFB_S4.t11 GNDA.t308 sky130_fd_pr__nfet_01v8 ad=0.6 pd=3.4 as=0.6 ps=3.4 w=3 l=0.15
X185 two_stage_opamp_dummy_magic_20_0.err_amp_mir.t4 two_stage_opamp_dummy_magic_20_0.V_tot.t6 two_stage_opamp_dummy_magic_20_0.V_err_p.t10 VDDA.t237 sky130_fd_pr__pfet_01v8 ad=0.1 pd=0.9 as=0.1 ps=0.9 w=0.5 l=0.15
X186 two_stage_opamp_dummy_magic_20_0.V_CMFB_S2.t10 two_stage_opamp_dummy_magic_20_0.X.t30 VDDA.t430 GNDA.t326 sky130_fd_pr__nfet_01v8 ad=0.6 pd=3.4 as=0.6 ps=3.4 w=3 l=0.15
X187 VOUT-.t49 two_stage_opamp_dummy_magic_20_0.cap_res_X.t108 sky130_fd_pr__cap_mim_m3_1 l=2 w=2
X188 VOUT-.t50 two_stage_opamp_dummy_magic_20_0.cap_res_X.t107 sky130_fd_pr__cap_mim_m3_1 l=2 w=2
X189 two_stage_opamp_dummy_magic_20_0.V_source.t17 two_stage_opamp_dummy_magic_20_0.V_tail_gate.t20 GNDA.t33 GNDA.t32 sky130_fd_pr__nfet_01v8 ad=0.5 pd=2.9 as=0.5 ps=2.9 w=2.5 l=0.15
X190 two_stage_opamp_dummy_magic_20_0.V_CMFB_S2.t9 two_stage_opamp_dummy_magic_20_0.X.t31 VDDA.t364 GNDA.t283 sky130_fd_pr__nfet_01v8 ad=0.6 pd=3.4 as=0.6 ps=3.4 w=3 l=0.15
X191 GNDA.t241 GNDA.t239 bgr_10_0.NFET_GATE_10uA.t3 GNDA.t240 sky130_fd_pr__nfet_01v8 ad=0.4 pd=2.8 as=0.2 ps=1.4 w=1 l=0.15
X192 VOUT+.t47 two_stage_opamp_dummy_magic_20_0.cap_res_Y.t109 sky130_fd_pr__cap_mim_m3_1 l=2 w=2
X193 VOUT+.t48 two_stage_opamp_dummy_magic_20_0.cap_res_Y.t108 sky130_fd_pr__cap_mim_m3_1 l=2 w=2
X194 two_stage_opamp_dummy_magic_20_0.V_err_gate.t10 bgr_10_0.NFET_GATE_10uA.t10 GNDA.t42 GNDA.t41 sky130_fd_pr__nfet_01v8 ad=0.2 pd=1.4 as=0.2 ps=1.4 w=1 l=0.15
X195 VOUT+.t3 two_stage_opamp_dummy_magic_20_0.V_b_2nd_stage.t4 GNDA.t94 GNDA.t93 sky130_fd_pr__nfet_01v8 ad=1.4 pd=7.4 as=1.4 ps=7.4 w=7 l=0.6
X196 VOUT+.t49 two_stage_opamp_dummy_magic_20_0.cap_res_Y.t107 sky130_fd_pr__cap_mim_m3_1 l=2 w=2
X197 two_stage_opamp_dummy_magic_20_0.Vb2.t0 two_stage_opamp_dummy_magic_20_0.Vb2_2.t7 two_stage_opamp_dummy_magic_20_0.Vb2_2.t9 two_stage_opamp_dummy_magic_20_0.Vb2_2.t8 sky130_fd_pr__pfet_01v8 ad=0.7 pd=3.9 as=1.4 ps=7.8 w=3.5 l=0.2
X198 VOUT+.t50 two_stage_opamp_dummy_magic_20_0.cap_res_Y.t106 sky130_fd_pr__cap_mim_m3_1 l=2 w=2
X199 two_stage_opamp_dummy_magic_20_0.Vb2.t6 bgr_10_0.NFET_GATE_10uA.t11 GNDA.t125 GNDA.t124 sky130_fd_pr__nfet_01v8 ad=0.2 pd=1.4 as=0.2 ps=1.4 w=1 l=0.15
X200 VDDA.t59 bgr_10_0.V_mir1.t18 bgr_10_0.1st_Vout_1.t4 VDDA.t58 sky130_fd_pr__pfet_01v8 ad=0.2 pd=1.4 as=0.2 ps=1.4 w=1 l=0.2
X201 two_stage_opamp_dummy_magic_20_0.V_err_gate.t8 VDDA.t173 VDDA.t175 VDDA.t174 sky130_fd_pr__pfet_01v8 ad=0.1 pd=0.9 as=0.2 ps=1.8 w=0.5 l=0.15
X202 two_stage_opamp_dummy_magic_20_0.VD1.t12 two_stage_opamp_dummy_magic_20_0.Vb1.t17 two_stage_opamp_dummy_magic_20_0.X.t13 GNDA.t147 sky130_fd_pr__nfet_01v8 ad=0.3 pd=1.9 as=0.3 ps=1.9 w=1.5 l=0.15
X203 VDDA.t280 two_stage_opamp_dummy_magic_20_0.Vb3.t11 two_stage_opamp_dummy_magic_20_0.VD3.t28 VDDA.t279 sky130_fd_pr__pfet_01v8 ad=0.7 pd=3.9 as=0.7 ps=3.9 w=3.5 l=0.2
X204 VOUT+.t51 two_stage_opamp_dummy_magic_20_0.cap_res_Y.t105 sky130_fd_pr__cap_mim_m3_1 l=2 w=2
X205 VDDA.t172 VDDA.t170 two_stage_opamp_dummy_magic_20_0.V_CMFB_S3.t0 VDDA.t171 sky130_fd_pr__pfet_01v8 ad=0.4 pd=2.8 as=0.2 ps=1.4 w=1 l=0.15
X206 VOUT-.t51 two_stage_opamp_dummy_magic_20_0.cap_res_X.t106 sky130_fd_pr__cap_mim_m3_1 l=2 w=2
X207 two_stage_opamp_dummy_magic_20_0.V_CMFB_S3.t15 bgr_10_0.PFET_GATE_10uA.t17 VDDA.t441 VDDA.t440 sky130_fd_pr__pfet_01v8 ad=0.2 pd=1.4 as=0.2 ps=1.4 w=1 l=0.15
X208 VOUT+.t13 two_stage_opamp_dummy_magic_20_0.Y.t34 VDDA.t404 VDDA.t403 sky130_fd_pr__pfet_01v8 ad=1.2 pd=6.4 as=1.2 ps=6.4 w=6 l=0.15
X209 VOUT-.t52 two_stage_opamp_dummy_magic_20_0.cap_res_X.t105 sky130_fd_pr__cap_mim_m3_1 l=2 w=2
X210 two_stage_opamp_dummy_magic_20_0.V_source.t16 two_stage_opamp_dummy_magic_20_0.V_tail_gate.t21 GNDA.t35 GNDA.t34 sky130_fd_pr__nfet_01v8 ad=0.5 pd=2.9 as=0.5 ps=2.9 w=2.5 l=0.15
X211 two_stage_opamp_dummy_magic_20_0.VD2.t5 two_stage_opamp_dummy_magic_20_0.Vb1.t18 two_stage_opamp_dummy_magic_20_0.Y.t4 GNDA.t37 sky130_fd_pr__nfet_01v8 ad=0.3 pd=1.9 as=0.3 ps=1.9 w=1.5 l=0.15
X212 VDDA.t169 VDDA.t167 two_stage_opamp_dummy_magic_20_0.Vb2_2.t3 VDDA.t168 sky130_fd_pr__pfet_01v8 ad=0.72 pd=4.4 as=0.36 ps=2.2 w=1.8 l=0.2
X213 VDDA.t49 two_stage_opamp_dummy_magic_20_0.X.t32 VOUT-.t1 VDDA.t48 sky130_fd_pr__pfet_01v8 ad=1.2 pd=6.4 as=1.2 ps=6.4 w=6 l=0.15
X214 VOUT+.t52 two_stage_opamp_dummy_magic_20_0.cap_res_Y.t104 sky130_fd_pr__cap_mim_m3_1 l=2 w=2
X215 bgr_10_0.V_TOP.t22 VDDA.t351 sky130_fd_pr__cap_mim_m3_1 l=2 w=2
X216 VDDA.t445 two_stage_opamp_dummy_magic_20_0.V_err_gate.t19 two_stage_opamp_dummy_magic_20_0.V_er_mir_p.t17 VDDA.t444 sky130_fd_pr__pfet_01v8 ad=0.1 pd=0.9 as=0.1 ps=0.9 w=0.5 l=0.15
X217 VOUT+.t53 two_stage_opamp_dummy_magic_20_0.cap_res_Y.t103 sky130_fd_pr__cap_mim_m3_1 l=2 w=2
X218 VOUT-.t53 two_stage_opamp_dummy_magic_20_0.cap_res_X.t104 sky130_fd_pr__cap_mim_m3_1 l=2 w=2
X219 bgr_10_0.1st_Vout_2.t4 bgr_10_0.V_mir2.t18 VDDA.t75 VDDA.t74 sky130_fd_pr__pfet_01v8 ad=0.2 pd=1.4 as=0.2 ps=1.4 w=1 l=0.2
X220 VOUT+.t54 two_stage_opamp_dummy_magic_20_0.cap_res_Y.t102 sky130_fd_pr__cap_mim_m3_1 l=2 w=2
X221 VOUT+.t55 two_stage_opamp_dummy_magic_20_0.cap_res_Y.t101 sky130_fd_pr__cap_mim_m3_1 l=2 w=2
X222 VOUT+.t56 two_stage_opamp_dummy_magic_20_0.cap_res_Y.t100 sky130_fd_pr__cap_mim_m3_1 l=2 w=2
X223 GNDA.t97 two_stage_opamp_dummy_magic_20_0.V_tail_gate.t22 two_stage_opamp_dummy_magic_20_0.V_source.t15 GNDA.t6 sky130_fd_pr__nfet_01v8 ad=0.5 pd=2.9 as=0.5 ps=2.9 w=2.5 l=0.15
X224 VOUT-.t15 a_14240_1956.t0 GNDA.t270 sky130_fd_pr__res_xhigh_po_0p35 l=2.63