* NGSPICE file created from bgr_opamp_dummy_magic_5.ext - technology: sky130A

.subckt sky130_fd_pr__rf_pnp_05v5_W3p40L3p40 Emitter Collector Base m=1
X0 Collector Base Emitter sky130_fd_pr__pnp_05v5_W3p40L3p40
**devattr s=462400,2720
.ends

.subckt bgr VB1_CUR_BIAS GNDA ERR_AMP_REF VDDA VB2_CUR_BIAS VB3_CUR_BIAS ERR_AMP_CUR_BIAS
+ V_CMFB_S2 TAIL_CUR_MIR_BIAS V_CMFB_S1 V_CMFB_S4 V_CMFB_S3
Xsky130_fd_pr__rf_pnp_05v5_W3p40L3p40_9 Vbe2 GNDA GNDA sky130_fd_pr__rf_pnp_05v5_W3p40L3p40 m=1
Xsky130_fd_pr__rf_pnp_05v5_W3p40L3p40_10 Vbe2 GNDA GNDA sky130_fd_pr__rf_pnp_05v5_W3p40L3p40 m=1
Xsky130_fd_pr__rf_pnp_05v5_W3p40L3p40_11 Vbe2 GNDA GNDA sky130_fd_pr__rf_pnp_05v5_W3p40L3p40 m=1
Xsky130_fd_pr__rf_pnp_05v5_W3p40L3p40_12 Vbe2 GNDA GNDA sky130_fd_pr__rf_pnp_05v5_W3p40L3p40 m=1
Xsky130_fd_pr__rf_pnp_05v5_W3p40L3p40_13 Vbe2 GNDA GNDA sky130_fd_pr__rf_pnp_05v5_W3p40L3p40 m=1
Xsky130_fd_pr__rf_pnp_05v5_W3p40L3p40_14 Vbe2 GNDA GNDA sky130_fd_pr__rf_pnp_05v5_W3p40L3p40 m=1
Xsky130_fd_pr__rf_pnp_05v5_W3p40L3p40_15 Vbe2 GNDA GNDA sky130_fd_pr__rf_pnp_05v5_W3p40L3p40 m=1
Xsky130_fd_pr__rf_pnp_05v5_W3p40L3p40_16 Vbe2 GNDA GNDA sky130_fd_pr__rf_pnp_05v5_W3p40L3p40 m=1
Xsky130_fd_pr__rf_pnp_05v5_W3p40L3p40_17 Vin- GNDA GNDA sky130_fd_pr__rf_pnp_05v5_W3p40L3p40 m=1
X0 VDDA V_TOP Vin+ VDDA sky130_fd_pr__pfet_01v8 ad=0.6 pd=3.4 as=0.6 ps=3.4 w=3 l=0.5
X1 GNDA VDDA V_p_1 GNDA sky130_fd_pr__nfet_01v8 ad=0.5 pd=2.9 as=1 ps=5.8 w=2.5 l=5
X2 V_CUR_REF_REG PFET_GATE_10uA VDDA VDDA sky130_fd_pr__pfet_01v8 ad=0.2 pd=1.4 as=0.2 ps=1.4 w=1 l=0.15
X3 VDDA VDDA V_TOP VDDA sky130_fd_pr__pfet_01v8 ad=0.4 pd=2.8 as=0.2 ps=1.4 w=1 l=0.2
X4 1st_Vout_1 cap_res1 sky130_fd_pr__cap_mim_m3_1 l=2 w=2
X5 VDDA PFET_GATE_10uA V_CMFB_S1 VDDA sky130_fd_pr__pfet_01v8 ad=0.2 pd=1.4 as=0.2 ps=1.4 w=1 l=0.15
X6 1st_Vout_2 cap_res2 sky130_fd_pr__cap_mim_m3_1 l=2 w=2
X7 VDDA V_TOP START_UP VDDA sky130_fd_pr__pfet_01v8 ad=0.6 pd=3.4 as=0.6 ps=3.4 w=3 l=0.5
X8 V_mir2 V_mir2 VDDA VDDA sky130_fd_pr__pfet_01v8 ad=0.2 pd=1.4 as=0.2 ps=1.4 w=1 l=0.2
X9 GNDA a_4400_6480# GNDA sky130_fd_pr__res_xhigh_po_0p35 l=6
X10 VDDA V_mir2 V_mir2 VDDA sky130_fd_pr__pfet_01v8 ad=0.2 pd=1.4 as=0.2 ps=1.4 w=1 l=0.2
X11 a_2792_6360# a_4400_6480# GNDA sky130_fd_pr__res_xhigh_po_0p35 l=6
X12 1st_Vout_1 cap_res1 sky130_fd_pr__cap_mim_m3_1 l=2 w=2
X13 GNDA START_UP_NFET1 START_UP_NFET1 GNDA sky130_fd_pr__nfet_01v8 ad=0.4 pd=2.8 as=0.2 ps=1.4 w=1 l=10
X14 V_TOP START_UP Vin- VDDA sky130_fd_pr__pfet_01v8 ad=0.2 pd=1.4 as=0.2 ps=1.4 w=1 l=0.15
X15 1st_Vout_2 cap_res2 sky130_fd_pr__cap_mim_m3_1 l=2 w=2
X16 VDDA V_mir2 1st_Vout_2 VDDA sky130_fd_pr__pfet_01v8 ad=0.2 pd=1.4 as=0.2 ps=1.4 w=1 l=0.2
X17 TAIL_CUR_MIR_BIAS PFET_GATE_10uA VDDA VDDA sky130_fd_pr__pfet_01v8 ad=0.2 pd=1.4 as=0.2 ps=1.4 w=1 l=0.15
X18 1st_Vout_2 V_CUR_REF_REG V_p_2 GNDA sky130_fd_pr__nfet_01v8 ad=0.1 pd=0.9 as=0.1 ps=0.9 w=0.5 l=0.2
X19 1st_Vout_1 cap_res1 sky130_fd_pr__cap_mim_m3_1 l=2 w=2
X20 Vin- V_TOP VDDA VDDA sky130_fd_pr__pfet_01v8 ad=0.6 pd=3.4 as=0.6 ps=3.4 w=3 l=0.5
X21 1st_Vout_2 cap_res2 sky130_fd_pr__cap_mim_m3_1 l=2 w=2
X22 VDDA VDDA PFET_GATE_10uA VDDA sky130_fd_pr__pfet_01v8 ad=0.4 pd=2.8 as=0.2 ps=1.4 w=1 l=0.2
X23 VB3_CUR_BIAS NFET_GATE_10uA GNDA GNDA sky130_fd_pr__nfet_01v8 ad=0.2 pd=1.4 as=0.2 ps=1.4 w=1 l=0.15
X24 V_TOP 1st_Vout_1 VDDA VDDA sky130_fd_pr__pfet_01v8 ad=0.2 pd=1.4 as=0.2 ps=1.4 w=1 l=0.2
X25 V_CMFB_S3 VDDA VDDA VDDA sky130_fd_pr__pfet_01v8 ad=0.2 pd=1.4 as=0.4 ps=2.8 w=1 l=0.15
X26 1st_Vout_1 cap_res1 sky130_fd_pr__cap_mim_m3_1 l=2 w=2
X27 V_TOP VDDA VDDA VDDA sky130_fd_pr__pfet_01v8 ad=0.2 pd=1.4 as=0.4 ps=2.8 w=1 l=0.15
X28 ERR_AMP_REF V_TOP VDDA VDDA sky130_fd_pr__pfet_01v8 ad=0.6 pd=3.4 as=0.6 ps=3.4 w=3 l=0.5
X29 V_TOP VDDA sky130_fd_pr__cap_mim_m3_1 l=2 w=2
X30 1st_Vout_2 cap_res2 sky130_fd_pr__cap_mim_m3_1 l=2 w=2
X31 GNDA GNDA VB3_CUR_BIAS GNDA sky130_fd_pr__nfet_01v8 ad=0.4 pd=2.8 as=0.2 ps=1.4 w=1 l=0.15
X32 1st_Vout_1 cap_res1 sky130_fd_pr__cap_mim_m3_1 l=2 w=2
X33 V_mir2 ERR_AMP_REF V_p_2 GNDA sky130_fd_pr__nfet_01v8 ad=0.1 pd=0.9 as=0.1 ps=0.9 w=0.5 l=0.2
X34 TAIL_CUR_MIR_BIAS PFET_GATE_10uA VDDA VDDA sky130_fd_pr__pfet_01v8 ad=0.2 pd=1.4 as=0.2 ps=1.4 w=1 l=0.15
X35 V_TOP VDDA sky130_fd_pr__cap_mim_m3_1 l=2 w=2
X36 VDDA V_mir2 V_mir2 VDDA sky130_fd_pr__pfet_01v8 ad=0.2 pd=1.4 as=0.2 ps=1.4 w=1 l=0.2
X37 PFET_GATE_10uA 1st_Vout_2 VDDA VDDA sky130_fd_pr__pfet_01v8 ad=0.2 pd=1.4 as=0.2 ps=1.4 w=1 l=0.2
X38 1st_Vout_2 cap_res2 sky130_fd_pr__cap_mim_m3_1 l=2 w=2
X39 V_TOP VDDA sky130_fd_pr__cap_mim_m3_1 l=2 w=2
X40 VDDA V_mir1 1st_Vout_1 VDDA sky130_fd_pr__pfet_01v8 ad=0.2 pd=1.4 as=0.2 ps=1.4 w=1 l=0.2
X41 V_p_1 Vin+ 1st_Vout_1 GNDA sky130_fd_pr__nfet_01v8 ad=0.1 pd=0.9 as=0.2 ps=1.8 w=0.5 l=0.2
X42 V_p_2 ERR_AMP_REF V_mir2 GNDA sky130_fd_pr__nfet_01v8 ad=0.1 pd=0.9 as=0.2 ps=1.8 w=0.5 l=0.2
X43 VB2_CUR_BIAS NFET_GATE_10uA GNDA GNDA sky130_fd_pr__nfet_01v8 ad=0.2 pd=1.4 as=0.2 ps=1.4 w=1 l=0.15
X44 VDDA V_TOP Vin- VDDA sky130_fd_pr__pfet_01v8 ad=0.6 pd=3.4 as=0.6 ps=3.4 w=3 l=0.5
X45 VDDA VDDA VB1_CUR_BIAS VDDA sky130_fd_pr__pfet_01v8 ad=0.4 pd=2.8 as=0.2 ps=1.4 w=1 l=0.15
X46 V_TOP VDDA sky130_fd_pr__cap_mim_m3_1 l=2 w=2
X47 GNDA NFET_GATE_10uA VB3_CUR_BIAS GNDA sky130_fd_pr__nfet_01v8 ad=0.2 pd=1.4 as=0.2 ps=1.4 w=1 l=0.15
X48 VDDA PFET_GATE_10uA V_CMFB_S3 VDDA sky130_fd_pr__pfet_01v8 ad=0.2 pd=1.4 as=0.2 ps=1.4 w=1 l=0.15
X49 VDDA 1st_Vout_1 V_TOP VDDA sky130_fd_pr__pfet_01v8 ad=0.2 pd=1.4 as=0.2 ps=1.4 w=1 l=0.2
X50 1st_Vout_2 cap_res2 sky130_fd_pr__cap_mim_m3_1 l=2 w=2
X51 VB2_CUR_BIAS NFET_GATE_10uA GNDA GNDA sky130_fd_pr__nfet_01v8 ad=0.2 pd=1.4 as=0.2 ps=1.4 w=1 l=0.15
X52 VDDA V_TOP START_UP VDDA sky130_fd_pr__pfet_01v8 ad=0.6 pd=3.4 as=0.6 ps=3.4 w=3 l=0.5
X53 V_p_1 Vin- V_mir1 GNDA sky130_fd_pr__nfet_01v8 ad=0.1 pd=0.9 as=0.1 ps=0.9 w=0.5 l=0.2
X54 V_TOP VDDA GNDA GNDA sky130_fd_pr__nfet_01v8 ad=1 pd=5.8 as=0.5 ps=2.9 w=2.5 l=5
X55 V_p_2 V_CUR_REF_REG 1st_Vout_2 GNDA sky130_fd_pr__nfet_01v8 ad=0.1 pd=0.9 as=0.1 ps=0.9 w=0.5 l=0.2
X56 TAIL_CUR_MIR_BIAS PFET_GATE_10uA VDDA VDDA sky130_fd_pr__pfet_01v8 ad=0.2 pd=1.4 as=0.2 ps=1.4 w=1 l=0.15
X57 VDDA VDDA ERR_AMP_REF VDDA sky130_fd_pr__pfet_01v8 ad=1.2 pd=6.8 as=0.6 ps=3.4 w=3 l=0.5
X58 V_TOP VDDA sky130_fd_pr__cap_mim_m3_1 l=2 w=2
X59 1st_Vout_2 cap_res2 sky130_fd_pr__cap_mim_m3_1 l=2 w=2
X60 VDDA 1st_Vout_1 V_TOP VDDA sky130_fd_pr__pfet_01v8 ad=0.2 pd=1.4 as=0.2 ps=1.4 w=1 l=0.2
X61 1st_Vout_1 cap_res1 sky130_fd_pr__cap_mim_m3_1 l=2 w=2
X62 V_CMFB_S4 NFET_GATE_10uA GNDA GNDA sky130_fd_pr__nfet_01v8 ad=0.2 pd=1.4 as=0.2 ps=1.4 w=1 l=0.15
X63 VDDA PFET_GATE_10uA VB1_CUR_BIAS VDDA sky130_fd_pr__pfet_01v8 ad=0.2 pd=1.4 as=0.2 ps=1.4 w=1 l=0.15
X64 VDDA VDDA V_CMFB_S3 VDDA sky130_fd_pr__pfet_01v8 ad=0.4 pd=2.8 as=0.2 ps=1.4 w=1 l=0.15
X65 V_p_1 Vin+ 1st_Vout_1 GNDA sky130_fd_pr__nfet_01v8 ad=0.1 pd=0.9 as=0.1 ps=0.9 w=0.5 l=0.2
X66 GNDA NFET_GATE_10uA VB3_CUR_BIAS GNDA sky130_fd_pr__nfet_01v8 ad=0.2 pd=1.4 as=0.2 ps=1.4 w=1 l=0.15
X67 GNDA NFET_GATE_10uA ERR_AMP_CUR_BIAS GNDA sky130_fd_pr__nfet_01v8 ad=0.2 pd=1.4 as=0.2 ps=1.4 w=1 l=0.15
X68 VDDA 1st_Vout_1 V_TOP VDDA sky130_fd_pr__pfet_01v8 ad=0.2 pd=1.4 as=0.2 ps=1.4 w=1 l=0.2
X69 V_TOP VDDA sky130_fd_pr__cap_mim_m3_1 l=2 w=2
X70 V_p_2 ERR_AMP_REF V_mir2 GNDA sky130_fd_pr__nfet_01v8 ad=0.1 pd=0.9 as=0.1 ps=0.9 w=0.5 l=0.2
X71 VDDA PFET_GATE_10uA V_CMFB_S3 VDDA sky130_fd_pr__pfet_01v8 ad=0.2 pd=1.4 as=0.2 ps=1.4 w=1 l=0.15
X72 V_TOP VDDA VDDA VDDA sky130_fd_pr__pfet_01v8 ad=0.2 pd=1.4 as=0.4 ps=2.8 w=1 l=0.2
X73 V_CMFB_S2 NFET_GATE_10uA GNDA GNDA sky130_fd_pr__nfet_01v8 ad=0.2 pd=1.4 as=0.2 ps=1.4 w=1 l=0.15
X74 V_mir2 V_mir2 VDDA VDDA sky130_fd_pr__pfet_01v8 ad=0.2 pd=1.4 as=0.2 ps=1.4 w=1 l=0.2
X75 GNDA VDDA PFET_GATE_10uA GNDA sky130_fd_pr__nfet_01v8 ad=0.5 pd=2.9 as=1 ps=5.8 w=2.5 l=5
X76 NFET_GATE_10uA VDDA VDDA VDDA sky130_fd_pr__pfet_01v8 ad=0.2 pd=1.4 as=0.4 ps=2.8 w=1 l=0.15
X77 1st_Vout_1 cap_res1 sky130_fd_pr__cap_mim_m3_1 l=2 w=2
X78 PFET_GATE_10uA 1st_Vout_2 VDDA VDDA sky130_fd_pr__pfet_01v8 ad=0.2 pd=1.4 as=0.2 ps=1.4 w=1 l=0.2
X79 1st_Vout_2 cap_res2 sky130_fd_pr__cap_mim_m3_1 l=2 w=2
X80 Vin- V_TOP VDDA VDDA sky130_fd_pr__pfet_01v8 ad=0.6 pd=3.4 as=0.6 ps=3.4 w=3 l=0.5
X81 V_mir1 Vin- V_p_1 GNDA sky130_fd_pr__nfet_01v8 ad=0.1 pd=0.9 as=0.1 ps=0.9 w=0.5 l=0.2
X82 1st_Vout_2 V_CUR_REF_REG V_p_2 GNDA sky130_fd_pr__nfet_01v8 ad=0.1 pd=0.9 as=0.1 ps=0.9 w=0.5 l=0.2
X83 1st_Vout_1 cap_res1 sky130_fd_pr__cap_mim_m3_1 l=2 w=2
X84 VB2_CUR_BIAS NFET_GATE_10uA GNDA GNDA sky130_fd_pr__nfet_01v8 ad=0.2 pd=1.4 as=0.2 ps=1.4 w=1 l=0.15
X85 V_CMFB_S1 PFET_GATE_10uA VDDA VDDA sky130_fd_pr__pfet_01v8 ad=0.2 pd=1.4 as=0.2 ps=1.4 w=1 l=0.15
X86 1st_Vout_2 cap_res2 sky130_fd_pr__cap_mim_m3_1 l=2 w=2
X87 1st_Vout_2 cap_res2 sky130_fd_pr__cap_mim_m3_1 l=2 w=2
X88 V_mir1 V_mir1 VDDA VDDA sky130_fd_pr__pfet_01v8 ad=0.2 pd=1.4 as=0.2 ps=1.4 w=1 l=0.2
X89 GNDA NFET_GATE_10uA NFET_GATE_10uA GNDA sky130_fd_pr__nfet_01v8 ad=0.2 pd=1.4 as=0.2 ps=1.4 w=1 l=0.15
X90 ERR_AMP_REF V_TOP VDDA VDDA sky130_fd_pr__pfet_01v8 ad=0.6 pd=3.4 as=0.6 ps=3.4 w=3 l=0.5
X91 1st_Vout_1 Vin+ V_p_1 GNDA sky130_fd_pr__nfet_01v8 ad=0.1 pd=0.9 as=0.1 ps=0.9 w=0.5 l=0.2
X92 1st_Vout_1 cap_res1 sky130_fd_pr__cap_mim_m3_1 l=2 w=2
X93 VB2_CUR_BIAS GNDA GNDA GNDA sky130_fd_pr__nfet_01v8 ad=0.2 pd=1.4 as=0.4 ps=2.8 w=1 l=0.15
X94 GNDA a_1830_6460# GNDA sky130_fd_pr__res_xhigh_po_0p35 l=6
X95 TAIL_CUR_MIR_BIAS PFET_GATE_10uA VDDA VDDA sky130_fd_pr__pfet_01v8 ad=0.2 pd=1.4 as=0.2 ps=1.4 w=1 l=0.15
X96 V_mir1 V_mir1 VDDA VDDA sky130_fd_pr__pfet_01v8 ad=0.2 pd=1.4 as=0.2 ps=1.4 w=1 l=0.2
X97 1st_Vout_1 Vin+ V_p_1 GNDA sky130_fd_pr__nfet_01v8 ad=0.1 pd=0.9 as=0.1 ps=0.9 w=0.5 l=0.2
X98 1st_Vout_2 cap_res2 sky130_fd_pr__cap_mim_m3_1 l=2 w=2
X99 VDDA VDDA V_CUR_REF_REG VDDA sky130_fd_pr__pfet_01v8 ad=0.4 pd=2.8 as=0.2 ps=1.4 w=1 l=0.15
X100 V_TOP VDDA sky130_fd_pr__cap_mim_m3_1 l=2 w=2
X101 V_CMFB_S4 GNDA GNDA GNDA sky130_fd_pr__nfet_01v8 ad=0.2 pd=1.4 as=0.4 ps=2.8 w=1 l=0.15
X102 V_CMFB_S1 PFET_GATE_10uA VDDA VDDA sky130_fd_pr__pfet_01v8 ad=0.2 pd=1.4 as=0.2 ps=1.4 w=1 l=0.15
X103 V_mir1 V_mir1 VDDA VDDA sky130_fd_pr__pfet_01v8 ad=0.2 pd=1.4 as=0.2 ps=1.4 w=1 l=0.2
X104 V_mir1 Vin- V_p_1 GNDA sky130_fd_pr__nfet_01v8 ad=0.2 pd=1.8 as=0.1 ps=0.9 w=0.5 l=0.2
X105 1st_Vout_2 V_CUR_REF_REG V_p_2 GNDA sky130_fd_pr__nfet_01v8 ad=0.2 pd=1.8 as=0.1 ps=0.9 w=0.5 l=0.2
X106 VDDA V_mir2 V_mir2 VDDA sky130_fd_pr__pfet_01v8 ad=0.2 pd=1.4 as=0.2 ps=1.4 w=1 l=0.2
X107 1st_Vout_2 cap_res2 sky130_fd_pr__cap_mim_m3_1 l=2 w=2
X108 V_TOP VDDA sky130_fd_pr__cap_mim_m3_1 l=2 w=2
X109 V_CMFB_S2 NFET_GATE_10uA GNDA GNDA sky130_fd_pr__nfet_01v8 ad=0.2 pd=1.4 as=0.2 ps=1.4 w=1 l=0.15
X110 V_CUR_REF_REG a_1830_6460# GNDA sky130_fd_pr__res_xhigh_po_0p35 l=6
X111 V_TOP VDDA sky130_fd_pr__cap_mim_m3_1 l=2 w=2
X112 VDDA VDDA V_TOP VDDA sky130_fd_pr__pfet_01v8 ad=0.4 pd=2.8 as=0.2 ps=1.4 w=1 l=0.15
X113 VDDA V_TOP ERR_AMP_REF VDDA sky130_fd_pr__pfet_01v8 ad=0.6 pd=3.4 as=0.6 ps=3.4 w=3 l=0.5
X114 V_p_1 Vin- V_mir1 GNDA sky130_fd_pr__nfet_01v8 ad=0.1 pd=0.9 as=0.1 ps=0.9 w=0.5 l=0.2
X115 1st_Vout_2 cap_res2 sky130_fd_pr__cap_mim_m3_1 l=2 w=2
X116 1st_Vout_2 cap_res2 sky130_fd_pr__cap_mim_m3_1 l=2 w=2
X117 1st_Vout_1 V_mir1 VDDA VDDA sky130_fd_pr__pfet_01v8 ad=0.2 pd=1.4 as=0.2 ps=1.4 w=1 l=0.2
X118 VDDA PFET_GATE_10uA TAIL_CUR_MIR_BIAS VDDA sky130_fd_pr__pfet_01v8 ad=0.2 pd=1.4 as=0.2 ps=1.4 w=1 l=0.15
X119 cap_res1 V_TOP GNDA sky130_fd_pr__res_high_po_0p35 l=2.05
X120 VDDA V_mir1 V_mir1 VDDA sky130_fd_pr__pfet_01v8 ad=0.2 pd=1.4 as=0.2 ps=1.4 w=1 l=0.2
X121 1st_Vout_1 cap_res1 sky130_fd_pr__cap_mim_m3_1 l=2 w=2
X122 V_CMFB_S1 VDDA VDDA VDDA sky130_fd_pr__pfet_01v8 ad=0.2 pd=1.4 as=0.4 ps=2.8 w=1 l=0.15
X123 1st_Vout_2 V_mir2 VDDA VDDA sky130_fd_pr__pfet_01v8 ad=0.2 pd=1.4 as=0.2 ps=1.4 w=1 l=0.2
X124 V_TOP VDDA sky130_fd_pr__cap_mim_m3_1 l=2 w=2
X125 ERR_AMP_REF VDDA VDDA VDDA sky130_fd_pr__pfet_01v8 ad=0.6 pd=3.4 as=1.2 ps=6.8 w=3 l=0.5
X126 VDDA V_mir1 V_mir1 VDDA sky130_fd_pr__pfet_01v8 ad=0.2 pd=1.4 as=0.2 ps=1.4 w=1 l=0.2
X127 V_p_1 Vin+ 1st_Vout_1 GNDA sky130_fd_pr__nfet_01v8 ad=0.1 pd=0.9 as=0.1 ps=0.9 w=0.5 l=0.2
X128 1st_Vout_1 cap_res1 sky130_fd_pr__cap_mim_m3_1 l=2 w=2
X129 V_p_2 VDDA GNDA GNDA sky130_fd_pr__nfet_01v8 ad=1 pd=5.8 as=0.5 ps=2.9 w=2.5 l=5
X130 VDDA VDDA V_CMFB_S1 VDDA sky130_fd_pr__pfet_01v8 ad=0.4 pd=2.8 as=0.2 ps=1.4 w=1 l=0.15
X131 Vin- START_UP V_TOP VDDA sky130_fd_pr__pfet_01v8 ad=0.2 pd=1.4 as=0.2 ps=1.4 w=1 l=0.15
X132 V_TOP VDDA sky130_fd_pr__cap_mim_m3_1 l=2 w=2
X133 PFET_GATE_10uA VDDA VDDA VDDA sky130_fd_pr__pfet_01v8 ad=0.2 pd=1.4 as=0.4 ps=2.8 w=1 l=0.2
X134 V_p_2 V_CUR_REF_REG 1st_Vout_2 GNDA sky130_fd_pr__nfet_01v8 ad=0.1 pd=0.9 as=0.1 ps=0.9 w=0.5 l=0.2
X135 1st_Vout_1 cap_res1 sky130_fd_pr__cap_mim_m3_1 l=2 w=2
X136 VDDA PFET_GATE_10uA TAIL_CUR_MIR_BIAS VDDA sky130_fd_pr__pfet_01v8 ad=0.2 pd=1.4 as=0.2 ps=1.4 w=1 l=0.15
X137 VDDA PFET_GATE_10uA TAIL_CUR_MIR_BIAS VDDA sky130_fd_pr__pfet_01v8 ad=0.2 pd=1.4 as=0.2 ps=1.4 w=1 l=0.15
X138 VDDA V_mir1 V_mir1 VDDA sky130_fd_pr__pfet_01v8 ad=0.2 pd=1.4 as=0.2 ps=1.4 w=1 l=0.2
X139 V_TOP VDDA sky130_fd_pr__cap_mim_m3_1 l=2 w=2
X140 1st_Vout_2 cap_res2 sky130_fd_pr__cap_mim_m3_1 l=2 w=2
X141 V_TOP VDDA sky130_fd_pr__cap_mim_m3_1 l=2 w=2
X142 PFET_GATE_10uA 1st_Vout_2 VDDA VDDA sky130_fd_pr__pfet_01v8 ad=0.2 pd=1.4 as=0.2 ps=1.4 w=1 l=0.2
X143 VDDA 1st_Vout_2 PFET_GATE_10uA VDDA sky130_fd_pr__pfet_01v8 ad=0.2 pd=1.4 as=0.2 ps=1.4 w=1 l=0.2
X144 START_UP V_TOP VDDA VDDA sky130_fd_pr__pfet_01v8 ad=0.6 pd=3.4 as=0.6 ps=3.4 w=3 l=0.5
X145 VDDA V_mir1 1st_Vout_1 VDDA sky130_fd_pr__pfet_01v8 ad=0.2 pd=1.4 as=0.2 ps=1.4 w=1 l=0.2
X146 1st_Vout_1 cap_res1 sky130_fd_pr__cap_mim_m3_1 l=2 w=2
X147 1st_Vout_1 cap_res1 sky130_fd_pr__cap_mim_m3_1 l=2 w=2
X148 GNDA GNDA VB2_CUR_BIAS GNDA sky130_fd_pr__nfet_01v8 ad=0.4 pd=2.8 as=0.2 ps=1.4 w=1 l=0.15
X149 VDDA V_TOP ERR_AMP_REF VDDA sky130_fd_pr__pfet_01v8 ad=0.6 pd=3.4 as=0.6 ps=3.4 w=3 l=0.5
X150 VB3_CUR_BIAS NFET_GATE_10uA GNDA GNDA sky130_fd_pr__nfet_01v8 ad=0.2 pd=1.4 as=0.2 ps=1.4 w=1 l=0.15
X151 VDDA V_mir1 1st_Vout_1 VDDA sky130_fd_pr__pfet_01v8 ad=0.2 pd=1.4 as=0.2 ps=1.4 w=1 l=0.2
X152 GNDA NFET_GATE_10uA VB2_CUR_BIAS GNDA sky130_fd_pr__nfet_01v8 ad=0.2 pd=1.4 as=0.2 ps=1.4 w=1 l=0.15
X153 1st_Vout_1 V_mir1 VDDA VDDA sky130_fd_pr__pfet_01v8 ad=0.2 pd=1.4 as=0.2 ps=1.4 w=1 l=0.2
X154 VDDA PFET_GATE_10uA TAIL_CUR_MIR_BIAS VDDA sky130_fd_pr__pfet_01v8 ad=0.2 pd=1.4 as=0.2 ps=1.4 w=1 l=0.15
X155 VDDA V_TOP Vin- VDDA sky130_fd_pr__pfet_01v8 ad=0.6 pd=3.4 as=0.6 ps=3.4 w=3 l=0.5
X156 VDDA V_mir2 1st_Vout_2 VDDA sky130_fd_pr__pfet_01v8 ad=0.2 pd=1.4 as=0.2 ps=1.4 w=1 l=0.2
X157 1st_Vout_1 cap_res1 sky130_fd_pr__cap_mim_m3_1 l=2 w=2
X158 1st_Vout_2 cap_res2 sky130_fd_pr__cap_mim_m3_1 l=2 w=2
X159 V_mir1 Vin- V_p_1 GNDA sky130_fd_pr__nfet_01v8 ad=0.1 pd=0.9 as=0.1 ps=0.9 w=0.5 l=0.2
X160 cap_res2 PFET_GATE_10uA GNDA sky130_fd_pr__res_high_po_0p35 l=2.05
X161 Vbe2 Vin+ GNDA sky130_fd_pr__res_xhigh_po_0p35 l=2.3
X162 VB1_CUR_BIAS PFET_GATE_10uA VDDA VDDA sky130_fd_pr__pfet_01v8 ad=0.2 pd=1.4 as=0.2 ps=1.4 w=1 l=0.15
X163 1st_Vout_1 V_mir1 VDDA VDDA sky130_fd_pr__pfet_01v8 ad=0.2 pd=1.4 as=0.2 ps=1.4 w=1 l=0.2
X164 V_TOP VDDA sky130_fd_pr__cap_mim_m3_1 l=2 w=2
X165 GNDA NFET_GATE_10uA V_CMFB_S4 GNDA sky130_fd_pr__nfet_01v8 ad=0.2 pd=1.4 as=0.2 ps=1.4 w=1 l=0.15
X166 VDDA 1st_Vout_2 PFET_GATE_10uA VDDA sky130_fd_pr__pfet_01v8 ad=0.2 pd=1.4 as=0.2 ps=1.4 w=1 l=0.2
X167 1st_Vout_2 cap_res2 sky130_fd_pr__cap_mim_m3_1 l=2 w=2
X168 1st_Vout_2 cap_res2 sky130_fd_pr__cap_mim_m3_1 l=2 w=2
X169 VB3_CUR_BIAS NFET_GATE_10uA GNDA GNDA sky130_fd_pr__nfet_01v8 ad=0.2 pd=1.4 as=0.2 ps=1.4 w=1 l=0.15
X170 V_mir2 ERR_AMP_REF V_p_2 GNDA sky130_fd_pr__nfet_01v8 ad=0.1 pd=0.9 as=0.1 ps=0.9 w=0.5 l=0.2
X171 V_CMFB_S3 PFET_GATE_10uA VDDA VDDA sky130_fd_pr__pfet_01v8 ad=0.2 pd=1.4 as=0.2 ps=1.4 w=1 l=0.15
X172 GNDA NFET_GATE_10uA V_CMFB_S2 GNDA sky130_fd_pr__nfet_01v8 ad=0.2 pd=1.4 as=0.2 ps=1.4 w=1 l=0.15
X173 VDDA PFET_GATE_10uA NFET_GATE_10uA VDDA sky130_fd_pr__pfet_01v8 ad=0.2 pd=1.4 as=0.2 ps=1.4 w=1 l=0.15
X174 START_UP V_TOP VDDA VDDA sky130_fd_pr__pfet_01v8 ad=0.6 pd=3.4 as=0.6 ps=3.4 w=3 l=0.5
X175 VDDA 1st_Vout_2 PFET_GATE_10uA VDDA sky130_fd_pr__pfet_01v8 ad=0.2 pd=1.4 as=0.2 ps=1.4 w=1 l=0.2
X176 V_TOP 1st_Vout_1 VDDA VDDA sky130_fd_pr__pfet_01v8 ad=0.2 pd=1.4 as=0.2 ps=1.4 w=1 l=0.2
X177 1st_Vout_2 cap_res2 sky130_fd_pr__cap_mim_m3_1 l=2 w=2
X178 Vin+ V_TOP VDDA VDDA sky130_fd_pr__pfet_01v8 ad=0.6 pd=3.4 as=0.6 ps=3.4 w=3 l=0.5
X179 1st_Vout_1 cap_res1 sky130_fd_pr__cap_mim_m3_1 l=2 w=2
X180 VB1_CUR_BIAS VDDA VDDA VDDA sky130_fd_pr__pfet_01v8 ad=0.2 pd=1.4 as=0.4 ps=2.8 w=1 l=0.15
X181 GNDA NFET_GATE_10uA VB2_CUR_BIAS GNDA sky130_fd_pr__nfet_01v8 ad=0.2 pd=1.4 as=0.2 ps=1.4 w=1 l=0.15
X182 ERR_AMP_REF a_1890_6990# GNDA sky130_fd_pr__res_xhigh_po_0p35 l=6.3
X183 V_CMFB_S3 PFET_GATE_10uA VDDA VDDA sky130_fd_pr__pfet_01v8 ad=0.2 pd=1.4 as=0.2 ps=1.4 w=1 l=0.15
X184 V_TOP VDDA sky130_fd_pr__cap_mim_m3_1 l=2 w=2
X185 ERR_AMP_CUR_BIAS NFET_GATE_10uA GNDA GNDA sky130_fd_pr__nfet_01v8 ad=0.2 pd=1.4 as=0.2 ps=1.4 w=1 l=0.15
X186 V_TOP 1st_Vout_1 VDDA VDDA sky130_fd_pr__pfet_01v8 ad=0.2 pd=1.4 as=0.2 ps=1.4 w=1 l=0.2
X187 GNDA NFET_GATE_10uA VB2_CUR_BIAS GNDA sky130_fd_pr__nfet_01v8 ad=0.2 pd=1.4 as=0.2 ps=1.4 w=1 l=0.15
X188 VDDA V_mir2 1st_Vout_2 VDDA sky130_fd_pr__pfet_01v8 ad=0.2 pd=1.4 as=0.2 ps=1.4 w=1 l=0.2
X189 1st_Vout_1 cap_res1 sky130_fd_pr__cap_mim_m3_1 l=2 w=2
X190 1st_Vout_1 cap_res1 sky130_fd_pr__cap_mim_m3_1 l=2 w=2
X191 START_UP_NFET1 START_UP START_UP GNDA sky130_fd_pr__nfet_01v8 ad=0.2 pd=1.4 as=0.4 ps=2.8 w=1 l=10
X192 a_2792_6240# a_4400_6600# GNDA sky130_fd_pr__res_xhigh_po_0p35 l=6
X193 Vin+ V_TOP VDDA VDDA sky130_fd_pr__pfet_01v8 ad=0.6 pd=3.4 as=0.6 ps=3.4 w=3 l=0.5
X194 V_mir2 V_mir2 VDDA VDDA sky130_fd_pr__pfet_01v8 ad=0.2 pd=1.4 as=0.2 ps=1.4 w=1 l=0.2
X195 a_2792_6240# Vin+ GNDA sky130_fd_pr__res_xhigh_po_0p35 l=6
X196 V_TOP VDDA sky130_fd_pr__cap_mim_m3_1 l=2 w=2
X197 V_TOP VDDA sky130_fd_pr__cap_mim_m3_1 l=2 w=2
X198 V_TOP VDDA sky130_fd_pr__cap_mim_m3_1 l=2 w=2
X199 1st_Vout_1 cap_res1 sky130_fd_pr__cap_mim_m3_1 l=2 w=2
X200 1st_Vout_1 cap_res1 sky130_fd_pr__cap_mim_m3_1 l=2 w=2
X201 GNDA NFET_GATE_10uA V_CMFB_S4 GNDA sky130_fd_pr__nfet_01v8 ad=0.2 pd=1.4 as=0.2 ps=1.4 w=1 l=0.15
X202 1st_Vout_2 V_mir2 VDDA VDDA sky130_fd_pr__pfet_01v8 ad=0.2 pd=1.4 as=0.2 ps=1.4 w=1 l=0.2
X203 V_TOP VDDA sky130_fd_pr__cap_mim_m3_1 l=2 w=2
X204 VDDA PFET_GATE_10uA V_CMFB_S1 VDDA sky130_fd_pr__pfet_01v8 ad=0.2 pd=1.4 as=0.2 ps=1.4 w=1 l=0.15
X205 V_p_2 ERR_AMP_REF V_mir2 GNDA sky130_fd_pr__nfet_01v8 ad=0.1 pd=0.9 as=0.1 ps=0.9 w=0.5 l=0.2
X206 NFET_GATE_10uA GNDA GNDA GNDA sky130_fd_pr__nfet_01v8 ad=0.2 pd=1.4 as=0.4 ps=2.8 w=1 l=0.15
X207 VDDA V_TOP Vin+ VDDA sky130_fd_pr__pfet_01v8 ad=0.6 pd=3.4 as=0.6 ps=3.4 w=3 l=0.5
X208 1st_Vout_2 cap_res2 sky130_fd_pr__cap_mim_m3_1 l=2 w=2
X209 V_TOP VDDA sky130_fd_pr__cap_mim_m3_1 l=2 w=2
X210 GNDA GNDA V_CMFB_S2 GNDA sky130_fd_pr__nfet_01v8 ad=0.4 pd=2.8 as=0.2 ps=1.4 w=1 l=0.15
X211 GNDA a_4400_6600# GNDA sky130_fd_pr__res_xhigh_po_0p35 l=6
X212 GNDA a_1890_6990# GNDA sky130_fd_pr__res_xhigh_po_0p35 l=6.3
X213 a_2792_6360# Vin- GNDA sky130_fd_pr__res_xhigh_po_0p35 l=6
X214 1st_Vout_2 V_mir2 VDDA VDDA sky130_fd_pr__pfet_01v8 ad=0.2 pd=1.4 as=0.2 ps=1.4 w=1 l=0.2
.ends

.subckt two_stage_opamp_dummy_magic VDDA V_CMFB_S1 V_CMFB_S3 Vb3 Vb2 Vb1 V_CMFB_S2
+ V_CMFB_S4 VOUT- VOUT+ V_tail_gate V_err_amp_ref V_err_gate VIN+ VIN- GNDA
X0 VOUT- cap_res_X sky130_fd_pr__cap_mim_m3_1 l=2 w=2
X1 VOUT- cap_res_X sky130_fd_pr__cap_mim_m3_1 l=2 w=2
X2 Vb2_Vb3 VDDA VDDA VDDA sky130_fd_pr__pfet_01v8 ad=0.64 pd=3.6 as=1.28 ps=7.2 w=3.2 l=0.2
X3 VOUT- cap_res_X sky130_fd_pr__cap_mim_m3_1 l=2 w=2
X4 V_p V_tail_gate GNDA GNDA sky130_fd_pr__nfet_01v8 ad=0.5 pd=2.9 as=0.5 ps=2.9 w=2.5 l=0.15
X5 V_p V_tail_gate GNDA GNDA sky130_fd_pr__nfet_01v8 ad=0.5 pd=2.9 as=0.5 ps=2.9 w=2.5 l=0.15
X6 V_err_gate V_err_amp_ref V_err_mir_p VDDA sky130_fd_pr__pfet_01v8 ad=0.1 pd=0.9 as=0.1 ps=0.9 w=0.5 l=0.15
X7 VD4 VDDA VDDA VDDA sky130_fd_pr__pfet_01v8 ad=0.7 pd=3.9 as=1.4 ps=7.8 w=3.5 l=0.2
X8 VDDA X VOUT- VDDA sky130_fd_pr__pfet_01v8 ad=1.2 pd=6.4 as=1.2 ps=6.4 w=6 l=0.15
X9 GNDA VDDA VDDA VDDA sky130_fd_pr__pfet_01v8 ad=0.4 pd=2.4 as=0.8 ps=4.8 w=2 l=0.15
X10 VOUT+ cap_res_Y sky130_fd_pr__cap_mim_m3_1 l=2 w=2
X11 VOUT+ cap_res_Y sky130_fd_pr__cap_mim_m3_1 l=2 w=2
X12 VOUT+ cap_res_Y sky130_fd_pr__cap_mim_m3_1 l=2 w=2
X13 err_amp_mir err_amp_mir GNDA GNDA sky130_fd_pr__nfet_01v8 ad=0.1 pd=0.9 as=0.1 ps=0.9 w=0.5 l=0.15
X14 VOUT+ cap_res_Y sky130_fd_pr__cap_mim_m3_1 l=2 w=2
X15 VOUT- cap_res_X sky130_fd_pr__cap_mim_m3_1 l=2 w=2
X16 VOUT- cap_res_X sky130_fd_pr__cap_mim_m3_1 l=2 w=2
X17 VOUT- cap_res_X sky130_fd_pr__cap_mim_m3_1 l=2 w=2
X18 VDDA Y V_CMFB_S4 GNDA sky130_fd_pr__nfet_01v8 ad=0.6 pd=3.4 as=0.6 ps=3.4 w=3 l=0.15
X19 a_58940_4628# V_CMFB_S2 GNDA sky130_fd_pr__res_xhigh_po_0p35 l=1.75
X20 VOUT- cap_res_X sky130_fd_pr__cap_mim_m3_1 l=2 w=2
X21 VD1 Vb1 Y GNDA sky130_fd_pr__nfet_01v8 ad=0.3 pd=1.9 as=0.3 ps=1.9 w=1.5 l=0.15
X22 VDDA V_err_gate V_err_mir_p VDDA sky130_fd_pr__pfet_01v8 ad=0.1 pd=0.9 as=0.1 ps=0.9 w=0.5 l=0.15
X23 VDDA V_err_gate V_err_mir_p VDDA sky130_fd_pr__pfet_01v8 ad=0.1 pd=0.9 as=0.1 ps=0.9 w=0.5 l=0.15
X24 err_amp_mir V_tot V_err_p VDDA sky130_fd_pr__pfet_01v8 ad=0.1 pd=0.9 as=0.1 ps=0.9 w=0.5 l=0.15
X25 VOUT- cap_res_X sky130_fd_pr__cap_mim_m3_1 l=2 w=2
X26 VOUT- cap_res_X sky130_fd_pr__cap_mim_m3_1 l=2 w=2
X27 VOUT+ cap_res_Y sky130_fd_pr__cap_mim_m3_1 l=2 w=2
X28 V_p VIN+ VD2 GNDA sky130_fd_pr__nfet_01v8 ad=0.3 pd=1.9 as=0.3 ps=1.9 w=1.5 l=0.15
X29 VOUT+ cap_res_Y sky130_fd_pr__cap_mim_m3_1 l=2 w=2
X30 VOUT+ cap_res_Y sky130_fd_pr__cap_mim_m3_1 l=2 w=2
X31 VDDA GNDA GNDA GNDA sky130_fd_pr__nfet_01v8 ad=0.6 pd=3.4 as=1.2 ps=6.8 w=3 l=0.15
X32 Vb2_Vb3 Vb2_Vb3 Vb3 Vb2_Vb3 sky130_fd_pr__pfet_01v8 ad=1.44 pd=8 as=0.72 ps=4 w=3.6 l=0.2
X33 V_CMFB_S3 Y GNDA VDDA sky130_fd_pr__pfet_01v8 ad=0.4 pd=2.4 as=0.4 ps=2.4 w=2 l=0.15
X34 VOUT+ cap_res_Y sky130_fd_pr__cap_mim_m3_1 l=2 w=2
X35 VOUT+ cap_res_Y sky130_fd_pr__cap_mim_m3_1 l=2 w=2
X36 VOUT+ VDDA VDDA VDDA sky130_fd_pr__pfet_01v8 ad=1.2 pd=6.4 as=2.4 ps=12.8 w=6 l=0.15
X37 V_CMFB_S1 X GNDA VDDA sky130_fd_pr__pfet_01v8 ad=0.4 pd=2.4 as=0.4 ps=2.4 w=2 l=0.15
X38 VOUT- cap_res_X sky130_fd_pr__cap_mim_m3_1 l=2 w=2
X39 VOUT+ cap_res_Y sky130_fd_pr__cap_mim_m3_1 l=2 w=2
X40 GNDA err_amp_mir err_amp_mir GNDA sky130_fd_pr__nfet_01v8 ad=0.1 pd=0.9 as=0.1 ps=0.9 w=0.5 l=0.15
X41 VOUT+ cap_res_Y sky130_fd_pr__cap_mim_m3_1 l=2 w=2
X42 VOUT+ cap_res_Y sky130_fd_pr__cap_mim_m3_1 l=2 w=2
X43 VDDA VDDA VDDA VDDA sky130_fd_pr__pfet_01v8 ad=0.64 pd=3.6 as=64.196 ps=364.18 w=3.2 l=0.2
X44 VOUT- cap_res_X sky130_fd_pr__cap_mim_m3_1 l=2 w=2
X45 V_err_p V_err_gate VDDA VDDA sky130_fd_pr__pfet_01v8 ad=0.1 pd=0.9 as=0.1 ps=0.9 w=0.5 l=0.15
X46 VOUT+ cap_res_Y sky130_fd_pr__cap_mim_m3_1 l=2 w=2
X47 VOUT+ cap_res_Y sky130_fd_pr__cap_mim_m3_1 l=2 w=2
X48 VOUT+ cap_res_Y sky130_fd_pr__cap_mim_m3_1 l=2 w=2
X49 VOUT- cap_res_X sky130_fd_pr__cap_mim_m3_1 l=2 w=2
X50 GNDA GNDA V_tail_gate GNDA sky130_fd_pr__nfet_01v8 ad=0.6 pd=3.8 as=0.3 ps=1.9 w=1.5 l=0.15
X51 VD1 VIN- V_p GNDA sky130_fd_pr__nfet_01v8 ad=0.3 pd=1.9 as=0.3 ps=1.9 w=1.5 l=0.15
X52 Y VD4 VD4 VD4 sky130_fd_pr__pfet_01v8 ad=0.7 pd=3.9 as=1.4 ps=7.8 w=3.5 l=0.2
X53 VOUT+ cap_res_Y sky130_fd_pr__cap_mim_m3_1 l=2 w=2
X54 VOUT+ cap_res_Y sky130_fd_pr__cap_mim_m3_1 l=2 w=2
X55 V_err_gate V_err_amp_ref V_err_mir_p VDDA sky130_fd_pr__pfet_01v8 ad=0.1 pd=0.9 as=0.1 ps=0.9 w=0.5 l=0.15
X56 VOUT+ cap_res_Y sky130_fd_pr__cap_mim_m3_1 l=2 w=2
X57 VOUT+ cap_res_Y sky130_fd_pr__cap_mim_m3_1 l=2 w=2
X58 V_p V_tail_gate GNDA GNDA sky130_fd_pr__nfet_01v8 ad=0.5 pd=2.9 as=0.5 ps=2.9 w=2.5 l=0.15
X59 cap_res_Y Y GNDA sky130_fd_pr__res_high_po_1p41 l=1.41
X60 VDDA Y VOUT+ VDDA sky130_fd_pr__pfet_01v8 ad=1.2 pd=6.4 as=1.2 ps=6.4 w=6 l=0.15
X61 X Vb1 VD2 GNDA sky130_fd_pr__nfet_01v8 ad=0.3 pd=1.9 as=0.3 ps=1.9 w=1.5 l=0.15
X62 VOUT+ cap_res_Y sky130_fd_pr__cap_mim_m3_1 l=2 w=2
X63 VOUT- cap_res_X sky130_fd_pr__cap_mim_m3_1 l=2 w=2
X64 VOUT+ cap_res_Y sky130_fd_pr__cap_mim_m3_1 l=2 w=2
X65 VDDA X VOUT- VDDA sky130_fd_pr__pfet_01v8 ad=1.2 pd=6.4 as=1.2 ps=6.4 w=6 l=0.15
X66 VOUT+ cap_res_Y sky130_fd_pr__cap_mim_m3_1 l=2 w=2
X67 err_amp_out err_amp_mir GNDA GNDA sky130_fd_pr__nfet_01v8 ad=0.1 pd=0.9 as=0.1 ps=0.9 w=0.5 l=0.15
X68 VDDA Y V_CMFB_S4 GNDA sky130_fd_pr__nfet_01v8 ad=0.6 pd=3.4 as=0.6 ps=3.4 w=3 l=0.15
X69 VOUT+ cap_res_Y sky130_fd_pr__cap_mim_m3_1 l=2 w=2
X70 VOUT- cap_res_X sky130_fd_pr__cap_mim_m3_1 l=2 w=2
X71 VDDA V_err_gate V_err_mir_p VDDA sky130_fd_pr__pfet_01v8 ad=0.1 pd=0.9 as=0.1 ps=0.9 w=0.5 l=0.15
X72 VOUT- cap_res_X sky130_fd_pr__cap_mim_m3_1 l=2 w=2
X73 VOUT+ cap_res_Y sky130_fd_pr__cap_mim_m3_1 l=2 w=2
X74 GNDA GNDA VOUT- GNDA sky130_fd_pr__nfet_01v8 ad=2.8 pd=14.8 as=1.4 ps=7.4 w=7 l=0.6
X75 a_59060_4628# V_CMFB_S1 GNDA sky130_fd_pr__res_xhigh_po_0p35 l=1.75
X76 VOUT- cap_res_X sky130_fd_pr__cap_mim_m3_1 l=2 w=2
X77 VD4 Vb3 VDDA VDDA sky130_fd_pr__pfet_01v8 ad=0.7 pd=3.9 as=0.7 ps=3.9 w=3.5 l=0.2
X78 VD1 Vb1 Y GNDA sky130_fd_pr__nfet_01v8 ad=0.3 pd=1.9 as=0.3 ps=1.9 w=1.5 l=0.15
X79 VDDA V_err_gate V_err_p VDDA sky130_fd_pr__pfet_01v8 ad=0.1 pd=0.9 as=0.1 ps=0.9 w=0.5 l=0.15
X80 VOUT+ cap_res_Y sky130_fd_pr__cap_mim_m3_1 l=2 w=2
X81 VOUT- cap_res_X sky130_fd_pr__cap_mim_m3_1 l=2 w=2
X82 err_amp_out V_err_amp_ref V_err_p VDDA sky130_fd_pr__pfet_01v8 ad=0.1 pd=0.9 as=0.1 ps=0.9 w=0.5 l=0.15
X83 VOUT- cap_res_X sky130_fd_pr__cap_mim_m3_1 l=2 w=2
X84 VOUT+ cap_res_Y sky130_fd_pr__cap_mim_m3_1 l=2 w=2
X85 GNDA V_tail_gate V_p GNDA sky130_fd_pr__nfet_01v8 ad=0.5 pd=2.9 as=0.5 ps=2.9 w=2.5 l=0.15
X86 V_CMFB_S3 Y GNDA VDDA sky130_fd_pr__pfet_01v8 ad=0.4 pd=2.4 as=0.4 ps=2.4 w=2 l=0.15
X87 VOUT- cap_res_X sky130_fd_pr__cap_mim_m3_1 l=2 w=2
X88 VDDA VDDA GNDA VDDA sky130_fd_pr__pfet_01v8 ad=0.8 pd=4.8 as=0.4 ps=2.4 w=2 l=0.15
X89 V_CMFB_S1 X GNDA VDDA sky130_fd_pr__pfet_01v8 ad=0.4 pd=2.4 as=0.4 ps=2.4 w=2 l=0.15
X90 GNDA err_amp_mir err_amp_out GNDA sky130_fd_pr__nfet_01v8 ad=0.1 pd=0.9 as=0.1 ps=0.9 w=0.5 l=0.15
X91 V_CMFB_S2 X VDDA GNDA sky130_fd_pr__nfet_01v8 ad=0.6 pd=3.4 as=0.6 ps=3.4 w=3 l=0.15
X92 VDDA Vb3 VD3 VDDA sky130_fd_pr__pfet_01v8 ad=0.7 pd=3.9 as=0.7 ps=3.9 w=3.5 l=0.2
X93 GNDA GNDA VDDA GNDA sky130_fd_pr__nfet_01v8 ad=1.2 pd=6.8 as=0.6 ps=3.4 w=3 l=0.15
X94 VOUT+ cap_res_Y sky130_fd_pr__cap_mim_m3_1 l=2 w=2
X95 VOUT- cap_res_X sky130_fd_pr__cap_mim_m3_1 l=2 w=2
X96 VOUT+ cap_res_Y sky130_fd_pr__cap_mim_m3_1 l=2 w=2
X97 V_err_mir_p V_err_gate VDDA VDDA sky130_fd_pr__pfet_01v8 ad=0.1 pd=0.9 as=0.1 ps=0.9 w=0.5 l=0.15
X98 VOUT+ cap_res_Y sky130_fd_pr__cap_mim_m3_1 l=2 w=2
X99 VOUT- cap_res_X sky130_fd_pr__cap_mim_m3_1 l=2 w=2
X100 VOUT+ cap_res_Y sky130_fd_pr__cap_mim_m3_1 l=2 w=2
X101 V_err_p V_err_amp_ref err_amp_out VDDA sky130_fd_pr__pfet_01v8 ad=0.1 pd=0.9 as=0.1 ps=0.9 w=0.5 l=0.15
X102 V_p_mir VIN- V_tail_gate GNDA sky130_fd_pr__nfet_01v8 ad=0.3 pd=1.9 as=0.3 ps=1.9 w=1.5 l=0.15
X103 VD2 VIN+ V_p GNDA sky130_fd_pr__nfet_01v8 ad=0.3 pd=1.9 as=0.3 ps=1.9 w=1.5 l=0.15
X104 VOUT+ cap_res_Y sky130_fd_pr__cap_mim_m3_1 l=2 w=2
X105 VOUT+ V_b_2nd_stage GNDA GNDA sky130_fd_pr__nfet_01v8 ad=1.4 pd=7.4 as=1.4 ps=7.4 w=7 l=0.6
X106 VDDA Vb3 VD4 VDDA sky130_fd_pr__pfet_01v8 ad=0.7 pd=3.9 as=0.7 ps=3.9 w=3.5 l=0.2
X107 V_err_gate V_tot V_err_mir_p VDDA sky130_fd_pr__pfet_01v8 ad=0.1 pd=0.9 as=0.1 ps=0.9 w=0.5 l=0.15
X108 V_p V_tail_gate GNDA GNDA sky130_fd_pr__nfet_01v8 ad=0.5 pd=2.9 as=0.5 ps=2.9 w=2.5 l=0.15
X109 VDDA VDDA VDDA VDDA sky130_fd_pr__pfet_01v8 ad=0.252 pd=2.06 as=0 ps=0 w=0.63 l=0.2
X110 VDDA Y VOUT+ VDDA sky130_fd_pr__pfet_01v8 ad=1.2 pd=6.4 as=1.2 ps=6.4 w=6 l=0.15
X111 VDDA VDDA VOUT+ VDDA sky130_fd_pr__pfet_01v8 ad=2.4 pd=12.8 as=1.2 ps=6.4 w=6 l=0.15
X112 X Vb1 VD2 GNDA sky130_fd_pr__nfet_01v8 ad=0.3 pd=1.9 as=0.3 ps=1.9 w=1.5 l=0.15
X113 VDDA X VOUT- VDDA sky130_fd_pr__pfet_01v8 ad=1.2 pd=6.4 as=1.2 ps=6.4 w=6 l=0.15
X114 VOUT- cap_res_X sky130_fd_pr__cap_mim_m3_1 l=2 w=2
X115 Y Vb2 VD4 VD4 sky130_fd_pr__pfet_01v8 ad=0.7 pd=3.9 as=0.7 ps=3.9 w=3.5 l=0.2
X116 VOUT- cap_res_X sky130_fd_pr__cap_mim_m3_1 l=2 w=2
X117 VOUT- cap_res_X sky130_fd_pr__cap_mim_m3_1 l=2 w=2
X118 VOUT- cap_res_X sky130_fd_pr__cap_mim_m3_1 l=2 w=2
X119 VOUT+ cap_res_Y sky130_fd_pr__cap_mim_m3_1 l=2 w=2
X120 VDDA Y V_CMFB_S4 GNDA sky130_fd_pr__nfet_01v8 ad=0.6 pd=3.4 as=0.6 ps=3.4 w=3 l=0.15
X121 VDDA V_err_gate V_err_p VDDA sky130_fd_pr__pfet_01v8 ad=0.1 pd=0.9 as=0.1 ps=0.9 w=0.5 l=0.15
X122 VOUT+ cap_res_Y sky130_fd_pr__cap_mim_m3_1 l=2 w=2
X123 VOUT- cap_res_X sky130_fd_pr__cap_mim_m3_1 l=2 w=2
X124 VOUT- GNDA GNDA GNDA sky130_fd_pr__nfet_01v8 ad=1.4 pd=7.4 as=2.8 ps=14.8 w=7 l=0.6
X125 err_amp_mir VDDA VDDA VDDA sky130_fd_pr__pfet_01v8 ad=0.1 pd=0.9 as=0.2 ps=1.8 w=0.5 l=0.15
X126 VOUT- cap_res_X sky130_fd_pr__cap_mim_m3_1 l=2 w=2
X127 VOUT- cap_res_X sky130_fd_pr__cap_mim_m3_1 l=2 w=2
X128 GNDA V_tail_gate V_p GNDA sky130_fd_pr__nfet_01v8 ad=0.5 pd=2.9 as=0.5 ps=2.9 w=2.5 l=0.15
X129 GNDA V_tail_gate V_p GNDA sky130_fd_pr__nfet_01v8 ad=0.5 pd=2.9 as=0.5 ps=2.9 w=2.5 l=0.15
X130 VD3 Vb2 X VD3 sky130_fd_pr__pfet_01v8 ad=0.7 pd=3.9 as=0.7 ps=3.9 w=3.5 l=0.2
X131 VOUT- cap_res_X sky130_fd_pr__cap_mim_m3_1 l=2 w=2
X132 V_CMFB_S3 Y GNDA VDDA sky130_fd_pr__pfet_01v8 ad=0.4 pd=2.4 as=0.4 ps=2.4 w=2 l=0.15
X133 VOUT- cap_res_X sky130_fd_pr__cap_mim_m3_1 l=2 w=2
X134 VOUT- cap_res_X sky130_fd_pr__cap_mim_m3_1 l=2 w=2
X135 VOUT- cap_res_X sky130_fd_pr__cap_mim_m3_1 l=2 w=2
X136 V_CMFB_S2 X VDDA GNDA sky130_fd_pr__nfet_01v8 ad=0.6 pd=3.4 as=0.6 ps=3.4 w=3 l=0.15
X137 VOUT- cap_res_X sky130_fd_pr__cap_mim_m3_1 l=2 w=2
X138 VOUT+ cap_res_Y sky130_fd_pr__cap_mim_m3_1 l=2 w=2
X139 VOUT- V_b_2nd_stage GNDA GNDA sky130_fd_pr__nfet_01v8 ad=1.4 pd=7.4 as=1.4 ps=7.4 w=7 l=0.6
X140 VDDA Vb3 VD4 VDDA sky130_fd_pr__pfet_01v8 ad=0.7 pd=3.9 as=0.7 ps=3.9 w=3.5 l=0.2