* PEX produced on Tue Aug  5 02:13:48 PM CEST 2025 using /foss/tools/osic-multitool/iic-pex.sh with m=3 and s=1
* NGSPICE file created from bgr_opamp_dummy_magic_16.ext - technology: sky130A

.subckt bgr_opamp_dummy_magic_16 VDDA GNDA VOUT+ VOUT- VIN+ VIN-
X0 two_stage_opamp_dummy_magic_23_0.Vb3.t6 GNDA.t461 GNDA.t463 GNDA.t462 sky130_fd_pr__nfet_01v8 ad=0.2 pd=1.4 as=0.4 ps=2.8 w=1 l=0.15
X1 VOUT+.t16 two_stage_opamp_dummy_magic_23_0.Y.t25 VDDA.t184 VDDA.t183 sky130_fd_pr__pfet_01v8 ad=1.2 pd=6.4 as=1.2 ps=6.4 w=6 l=0.15
X2 GNDA.t586 bgr_11_0.NFET_GATE_10uA.t5 two_stage_opamp_dummy_magic_23_0.Vb3.t7 GNDA.t585 sky130_fd_pr__nfet_01v8 ad=0.2 pd=1.4 as=0.2 ps=1.4 w=1 l=0.15
X3 VDDA.t424 GNDA.t507 sky130_fd_pr__cap_mim_m3_1 l=2 w=2
X4 VDDA.t425 GNDA.t508 sky130_fd_pr__cap_mim_m3_1 l=2 w=2
X5 VDDA.t426 GNDA.t502 sky130_fd_pr__cap_mim_m3_1 l=2 w=2
X6 VDDA.t427 bgr_11_0.cap_res2.t19 sky130_fd_pr__cap_mim_m3_1 l=2 w=2
X7 VDDA.t428 GNDA.t503 sky130_fd_pr__cap_mim_m3_1 l=2 w=2
X8 VOUT-.t19 two_stage_opamp_dummy_magic_23_0.cap_res_X.t138 sky130_fd_pr__cap_mim_m3_1 l=2 w=2
X9 VDDA.t429 GNDA.t544 sky130_fd_pr__cap_mim_m3_1 l=2 w=2
X10 two_stage_opamp_dummy_magic_23_0.VD1.t10 two_stage_opamp_dummy_magic_23_0.Vb1.t12 two_stage_opamp_dummy_magic_23_0.X.t4 GNDA.t244 sky130_fd_pr__nfet_01v8 ad=0.3 pd=1.9 as=0.3 ps=1.9 w=1.5 l=0.15
X11 two_stage_opamp_dummy_magic_23_0.X.t14 two_stage_opamp_dummy_magic_23_0.Vb2.t11 two_stage_opamp_dummy_magic_23_0.VD3.t31 two_stage_opamp_dummy_magic_23_0.VD3.t30 sky130_fd_pr__pfet_01v8 ad=0.7 pd=3.9 as=0.7 ps=3.9 w=3.5 l=0.2
X12 VOUT-.t14 VDDA.t390 VDDA.t392 VDDA.t391 sky130_fd_pr__pfet_01v8 ad=1.2 pd=6.4 as=2.4 ps=12.8 w=6 l=0.15
X13 GNDA.t292 a_5820_23644.t1 GNDA.t41 sky130_fd_pr__res_xhigh_po_0p35 l=4.28
X14 VOUT+.t19 two_stage_opamp_dummy_magic_23_0.cap_res_Y.t137 sky130_fd_pr__cap_mim_m3_1 l=2 w=2
X15 GNDA.t460 GNDA.t458 VDDA.t102 GNDA.t459 sky130_fd_pr__nfet_01v8 ad=1.2 pd=6.8 as=0.6 ps=3.4 w=3 l=0.15
X16 VDDA.t430 GNDA.t545 sky130_fd_pr__cap_mim_m3_1 l=2 w=2
X17 VDDA.t431 GNDA.t546 sky130_fd_pr__cap_mim_m3_1 l=2 w=2
X18 w_6100_17280.t27 bgr_11_0.V_mir1.t13 bgr_11_0.1st_Vout_1.t4 w_6100_17280.t26 sky130_fd_pr__pfet_01v8 ad=0.2 pd=1.4 as=0.2 ps=1.4 w=1 l=0.2
X19 bgr_11_0.1st_Vout_1.t7 bgr_11_0.cap_res1.t20 sky130_fd_pr__cap_mim_m3_1 l=2 w=2
X20 VDDA.t432 GNDA.t88 sky130_fd_pr__cap_mim_m3_1 l=2 w=2
X21 GNDA.t457 GNDA.t454 GNDA.t456 GNDA.t455 sky130_fd_pr__nfet_01v8 ad=1 pd=5.8 as=0 ps=0 w=2.5 l=0.15
X22 VDDA.t433 GNDA.t89 sky130_fd_pr__cap_mim_m3_1 l=2 w=2
X23 VDDA.t79 bgr_11_0.V_CUR_REF_REG.t3 bgr_11_0.V_p_2.t1 GNDA.t305 sky130_fd_pr__nfet_01v8 ad=1 pd=5.8 as=0.5 ps=2.9 w=2.5 l=0.2
X24 two_stage_opamp_dummy_magic_23_0.VD2.t10 two_stage_opamp_dummy_magic_23_0.Vb1.t13 two_stage_opamp_dummy_magic_23_0.Y.t9 GNDA.t245 sky130_fd_pr__nfet_01v8 ad=0.3 pd=1.9 as=0.3 ps=1.9 w=1.5 l=0.15
X25 GNDA.t277 two_stage_opamp_dummy_magic_23_0.V_tail_gate.t12 two_stage_opamp_dummy_magic_23_0.V_source.t39 GNDA.t276 sky130_fd_pr__nfet_01v8 ad=0.5 pd=2.9 as=0.5 ps=2.9 w=2.5 l=0.15
X26 VDDA.t434 GNDA.t90 sky130_fd_pr__cap_mim_m3_1 l=2 w=2
X27 bgr_11_0.1st_Vout_1.t8 bgr_11_0.cap_res1.t19 sky130_fd_pr__cap_mim_m3_1 l=2 w=2
X28 GNDA.t453 GNDA.t451 two_stage_opamp_dummy_magic_23_0.Vb2.t8 GNDA.t452 sky130_fd_pr__nfet_01v8 ad=0.4 pd=2.8 as=0.2 ps=1.4 w=1 l=0.15
X29 two_stage_opamp_dummy_magic_23_0.VD1.t9 two_stage_opamp_dummy_magic_23_0.Vb1.t14 two_stage_opamp_dummy_magic_23_0.X.t6 GNDA.t10 sky130_fd_pr__nfet_01v8 ad=0.3 pd=1.9 as=0.3 ps=1.9 w=1.5 l=0.15
X30 VOUT-.t20 two_stage_opamp_dummy_magic_23_0.cap_res_X.t137 sky130_fd_pr__cap_mim_m3_1 l=2 w=2
X31 two_stage_opamp_dummy_magic_23_0.VD4.t15 two_stage_opamp_dummy_magic_23_0.Vb3.t8 VDDA.t144 VDDA.t143 sky130_fd_pr__pfet_01v8 ad=0.7 pd=3.9 as=0.7 ps=3.9 w=3.5 l=0.2
X32 VDDA.t435 GNDA.t359 sky130_fd_pr__cap_mim_m3_1 l=2 w=2
X33 two_stage_opamp_dummy_magic_23_0.V_CMFB_S1.t10 two_stage_opamp_dummy_magic_23_0.X.t25 GNDA.t328 VDDA.t86 sky130_fd_pr__pfet_01v8 ad=0.4 pd=2.4 as=0.4 ps=2.4 w=2 l=0.15
X34 two_stage_opamp_dummy_magic_23_0.Vb2_2.t5 two_stage_opamp_dummy_magic_23_0.Vb2_2.t3 two_stage_opamp_dummy_magic_23_0.Vb2_2.t5 two_stage_opamp_dummy_magic_23_0.Vb2_2.t4 sky130_fd_pr__pfet_01v8 ad=0.7 pd=3.9 as=0 ps=0 w=3.5 l=0.2
X35 VOUT-.t21 two_stage_opamp_dummy_magic_23_0.cap_res_X.t136 sky130_fd_pr__cap_mim_m3_1 l=2 w=2
X36 VDDA.t436 GNDA.t360 sky130_fd_pr__cap_mim_m3_1 l=2 w=2
X37 VDDA.t437 GNDA.t361 sky130_fd_pr__cap_mim_m3_1 l=2 w=2
X38 GNDA.t166 a_6470_23450.t0 GNDA.t165 sky130_fd_pr__res_xhigh_po_0p35 l=6
X39 VDDA.t438 GNDA.t469 sky130_fd_pr__cap_mim_m3_1 l=2 w=2
X40 VOUT+.t20 two_stage_opamp_dummy_magic_23_0.cap_res_Y.t136 sky130_fd_pr__cap_mim_m3_1 l=2 w=2
X41 VDDA.t439 GNDA.t470 sky130_fd_pr__cap_mim_m3_1 l=2 w=2
X42 VOUT-.t22 two_stage_opamp_dummy_magic_23_0.cap_res_X.t135 sky130_fd_pr__cap_mim_m3_1 l=2 w=2
X43 VDDA.t440 GNDA.t471 sky130_fd_pr__cap_mim_m3_1 l=2 w=2
X44 VOUT-.t23 two_stage_opamp_dummy_magic_23_0.cap_res_X.t134 sky130_fd_pr__cap_mim_m3_1 l=2 w=2
X45 GNDA.t233 bgr_11_0.NFET_GATE_10uA.t6 two_stage_opamp_dummy_magic_23_0.V_CMFB_S4.t2 GNDA.t232 sky130_fd_pr__nfet_01v8 ad=0.2 pd=1.4 as=0.2 ps=1.4 w=1 l=0.15
X46 w_6100_17280.t47 w_6100_17280.t45 VDDA.t53 w_6100_17280.t46 sky130_fd_pr__pfet_01v8 ad=0.4 pd=2.8 as=0.2 ps=1.4 w=1 l=0.2
X47 two_stage_opamp_dummy_magic_23_0.err_amp_out.t8 two_stage_opamp_dummy_magic_23_0.V_err_amp_ref.t7 two_stage_opamp_dummy_magic_23_0.V_err_p.t12 VDDA.t14 sky130_fd_pr__pfet_01v8 ad=0.1 pd=0.9 as=0.1 ps=0.9 w=0.5 l=0.15
X48 VDDA.t182 two_stage_opamp_dummy_magic_23_0.Y.t26 two_stage_opamp_dummy_magic_23_0.V_CMFB_S4.t13 GNDA.t313 sky130_fd_pr__nfet_01v8 ad=0.6 pd=3.4 as=0.6 ps=3.4 w=3 l=0.15
X49 VOUT+.t21 two_stage_opamp_dummy_magic_23_0.cap_res_Y.t135 sky130_fd_pr__cap_mim_m3_1 l=2 w=2
X50 VOUT+.t22 two_stage_opamp_dummy_magic_23_0.cap_res_Y.t134 sky130_fd_pr__cap_mim_m3_1 l=2 w=2
X51 two_stage_opamp_dummy_magic_23_0.Vb2.t7 GNDA.t448 GNDA.t450 GNDA.t449 sky130_fd_pr__nfet_01v8 ad=0.2 pd=1.4 as=0.4 ps=2.8 w=1 l=0.15
X52 VDDA.t441 GNDA.t85 sky130_fd_pr__cap_mim_m3_1 l=2 w=2
X53 VDDA.t442 GNDA.t86 sky130_fd_pr__cap_mim_m3_1 l=2 w=2
X54 VOUT+.t23 two_stage_opamp_dummy_magic_23_0.cap_res_Y.t133 sky130_fd_pr__cap_mim_m3_1 l=2 w=2
X55 VDDA.t378 VDDA.t379 sky130_fd_pr__cap_mim_m3_1 l=2 w=2
X56 VDDA.t31 two_stage_opamp_dummy_magic_23_0.V_err_gate.t14 two_stage_opamp_dummy_magic_23_0.V_err_p.t6 VDDA.t30 sky130_fd_pr__pfet_01v8 ad=0.1 pd=0.9 as=0.1 ps=0.9 w=0.5 l=0.15
X57 VDDA.t443 GNDA.t87 sky130_fd_pr__cap_mim_m3_1 l=2 w=2
X58 VDDA.t444 GNDA.t82 sky130_fd_pr__cap_mim_m3_1 l=2 w=2
X59 GNDA.t325 two_stage_opamp_dummy_magic_23_0.err_amp_mir.t17 two_stage_opamp_dummy_magic_23_0.err_amp_out.t9 GNDA.t324 sky130_fd_pr__nfet_01v8 ad=0.1 pd=0.9 as=0.1 ps=0.9 w=0.5 l=0.15
X60 VOUT-.t24 two_stage_opamp_dummy_magic_23_0.cap_res_X.t133 sky130_fd_pr__cap_mim_m3_1 l=2 w=2
X61 VDDA.t84 two_stage_opamp_dummy_magic_23_0.V_err_gate.t15 a_7460_6300.t10 VDDA.t83 sky130_fd_pr__pfet_01v8 ad=0.1 pd=0.9 as=0.1 ps=0.9 w=0.5 l=0.15
X62 GNDA.t314 two_stage_opamp_dummy_magic_23_0.Y.t27 two_stage_opamp_dummy_magic_23_0.V_CMFB_S3.t10 VDDA.t181 sky130_fd_pr__pfet_01v8 ad=0.4 pd=2.4 as=0.4 ps=2.4 w=2 l=0.15
X63 VOUT-.t25 two_stage_opamp_dummy_magic_23_0.cap_res_X.t132 sky130_fd_pr__cap_mim_m3_1 l=2 w=2
X64 two_stage_opamp_dummy_magic_23_0.V_source.t6 VIN-.t0 two_stage_opamp_dummy_magic_23_0.VD1.t13 GNDA.t130 sky130_fd_pr__nfet_01v8 ad=0.3 pd=1.9 as=0.3 ps=1.9 w=1.5 l=0.15
X65 VDDA.t445 GNDA.t83 sky130_fd_pr__cap_mim_m3_1 l=2 w=2
X66 VDDA.t446 GNDA.t84 sky130_fd_pr__cap_mim_m3_1 l=2 w=2
X67 VDDA.t389 VDDA.t386 VDDA.t388 VDDA.t387 sky130_fd_pr__pfet_01v8 ad=0.4 pd=2.8 as=0 ps=0 w=1 l=0.15
X68 w_6100_17280.t61 bgr_11_0.1st_Vout_1.t9 VDDA.t80 w_6100_17280.t60 sky130_fd_pr__pfet_01v8 ad=0.2 pd=1.4 as=0.2 ps=1.4 w=1 l=0.2
X69 VDDA.t385 VDDA.t383 two_stage_opamp_dummy_magic_23_0.V_tail_gate.t11 VDDA.t384 sky130_fd_pr__pfet_01v8 ad=0.2 pd=1.4 as=0.2 ps=1.4 w=1 l=0.15
X70 two_stage_opamp_dummy_magic_23_0.err_amp_out.t7 two_stage_opamp_dummy_magic_23_0.V_err_amp_ref.t8 two_stage_opamp_dummy_magic_23_0.V_err_p.t13 VDDA.t415 sky130_fd_pr__pfet_01v8 ad=0.1 pd=0.9 as=0.1 ps=0.9 w=0.5 l=0.15
X71 VDDA.t376 VDDA.t377 sky130_fd_pr__cap_mim_m3_1 l=2 w=2
X72 VOUT+.t24 two_stage_opamp_dummy_magic_23_0.cap_res_Y.t132 sky130_fd_pr__cap_mim_m3_1 l=2 w=2
X73 VOUT-.t26 two_stage_opamp_dummy_magic_23_0.cap_res_X.t131 sky130_fd_pr__cap_mim_m3_1 l=2 w=2
X74 VDDA.t447 GNDA.t79 sky130_fd_pr__cap_mim_m3_1 l=2 w=2
X75 VDDA.t448 GNDA.t80 sky130_fd_pr__cap_mim_m3_1 l=2 w=2
X76 VDDA.t449 GNDA.t81 sky130_fd_pr__cap_mim_m3_1 l=2 w=2
X77 VOUT-.t27 two_stage_opamp_dummy_magic_23_0.cap_res_X.t130 sky130_fd_pr__cap_mim_m3_1 l=2 w=2
X78 VOUT-.t28 two_stage_opamp_dummy_magic_23_0.cap_res_X.t129 sky130_fd_pr__cap_mim_m3_1 l=2 w=2
X79 VDDA.t142 two_stage_opamp_dummy_magic_23_0.Vb3.t9 two_stage_opamp_dummy_magic_23_0.VD3.t9 VDDA.t141 sky130_fd_pr__pfet_01v8 ad=0.7 pd=3.9 as=0.7 ps=3.9 w=3.5 l=0.2
X80 two_stage_opamp_dummy_magic_23_0.V_err_p.t8 two_stage_opamp_dummy_magic_23_0.V_err_gate.t16 VDDA.t50 VDDA.t49 sky130_fd_pr__pfet_01v8 ad=0.1 pd=0.9 as=0.1 ps=0.9 w=0.5 l=0.15
X81 VDDA.t450 GNDA.t541 sky130_fd_pr__cap_mim_m3_1 l=2 w=2
X82 VOUT-.t29 two_stage_opamp_dummy_magic_23_0.cap_res_X.t128 sky130_fd_pr__cap_mim_m3_1 l=2 w=2
X83 VDDA.t140 two_stage_opamp_dummy_magic_23_0.Vb3.t10 two_stage_opamp_dummy_magic_23_0.VD4.t14 VDDA.t139 sky130_fd_pr__pfet_01v8 ad=0.7 pd=3.9 as=0.7 ps=3.9 w=3.5 l=0.2
X84 VOUT+.t15 two_stage_opamp_dummy_magic_23_0.Y.t28 VDDA.t180 VDDA.t179 sky130_fd_pr__pfet_01v8 ad=1.2 pd=6.4 as=1.2 ps=6.4 w=6 l=0.15
X85 VDDA.t374 VDDA.t375 sky130_fd_pr__cap_mim_m3_1 l=2 w=2
X86 VOUT-.t30 two_stage_opamp_dummy_magic_23_0.cap_res_X.t127 sky130_fd_pr__cap_mim_m3_1 l=2 w=2
X87 two_stage_opamp_dummy_magic_23_0.VD1.t15 VIN-.t1 two_stage_opamp_dummy_magic_23_0.V_source.t9 GNDA.t7 sky130_fd_pr__nfet_01v8 ad=0.3 pd=1.9 as=0.3 ps=1.9 w=1.5 l=0.15
X88 VOUT-.t31 two_stage_opamp_dummy_magic_23_0.cap_res_X.t126 sky130_fd_pr__cap_mim_m3_1 l=2 w=2
X89 VOUT+.t25 two_stage_opamp_dummy_magic_23_0.cap_res_Y.t131 sky130_fd_pr__cap_mim_m3_1 l=2 w=2
X90 VOUT-.t32 two_stage_opamp_dummy_magic_23_0.cap_res_X.t125 sky130_fd_pr__cap_mim_m3_1 l=2 w=2
X91 two_stage_opamp_dummy_magic_23_0.V_err_gate.t4 bgr_11_0.NFET_GATE_10uA.t7 GNDA.t235 GNDA.t234 sky130_fd_pr__nfet_01v8 ad=0.2 pd=1.4 as=0.2 ps=1.4 w=1 l=0.15
X92 two_stage_opamp_dummy_magic_23_0.Y.t3 two_stage_opamp_dummy_magic_23_0.Vb2.t12 two_stage_opamp_dummy_magic_23_0.VD4.t37 two_stage_opamp_dummy_magic_23_0.VD4.t36 sky130_fd_pr__pfet_01v8 ad=0.7 pd=3.9 as=0.7 ps=3.9 w=3.5 l=0.2
X93 VDDA.t382 VDDA.t380 two_stage_opamp_dummy_magic_23_0.err_amp_out.t11 VDDA.t381 sky130_fd_pr__pfet_01v8 ad=0.2 pd=1.8 as=0.1 ps=0.9 w=0.5 l=0.15
X94 VDDA.t451 GNDA.t542 sky130_fd_pr__cap_mim_m3_1 l=2 w=2
X95 VOUT+.t26 two_stage_opamp_dummy_magic_23_0.cap_res_Y.t130 sky130_fd_pr__cap_mim_m3_1 l=2 w=2
X96 VOUT-.t33 two_stage_opamp_dummy_magic_23_0.cap_res_X.t124 sky130_fd_pr__cap_mim_m3_1 l=2 w=2
X97 VOUT+.t27 two_stage_opamp_dummy_magic_23_0.cap_res_Y.t129 sky130_fd_pr__cap_mim_m3_1 l=2 w=2
X98 VDDA.t452 GNDA.t543 sky130_fd_pr__cap_mim_m3_1 l=2 w=2
X99 VDDA.t453 GNDA.t74 sky130_fd_pr__cap_mim_m3_1 l=2 w=2
X100 VDDA.t454 GNDA.t75 sky130_fd_pr__cap_mim_m3_1 l=2 w=2
X101 two_stage_opamp_dummy_magic_23_0.V_CMFB_S2.t13 two_stage_opamp_dummy_magic_23_0.X.t26 VDDA.t87 GNDA.t330 sky130_fd_pr__nfet_01v8 ad=0.6 pd=3.4 as=0.6 ps=3.4 w=3 l=0.15
X102 w_6100_17280.t25 bgr_11_0.V_mir1.t8 bgr_11_0.V_mir1.t9 w_6100_17280.t24 sky130_fd_pr__pfet_01v8 ad=0.2 pd=1.4 as=0.2 ps=1.4 w=1 l=0.2
X103 two_stage_opamp_dummy_magic_23_0.V_CMFB_S3.t9 two_stage_opamp_dummy_magic_23_0.Y.t29 GNDA.t240 VDDA.t178 sky130_fd_pr__pfet_01v8 ad=0.4 pd=2.4 as=0.4 ps=2.4 w=2 l=0.15
X104 two_stage_opamp_dummy_magic_23_0.VD2.t21 VIN+.t0 two_stage_opamp_dummy_magic_23_0.V_source.t21 GNDA.t8 sky130_fd_pr__nfet_01v8 ad=0.3 pd=1.9 as=0.3 ps=1.9 w=1.5 l=0.15
X105 VDDA.t455 GNDA.t76 sky130_fd_pr__cap_mim_m3_1 l=2 w=2
X106 VDDA.t456 GNDA.t538 sky130_fd_pr__cap_mim_m3_1 l=2 w=2
X107 VOUT-.t34 two_stage_opamp_dummy_magic_23_0.cap_res_X.t123 sky130_fd_pr__cap_mim_m3_1 l=2 w=2
X108 VDDA.t373 VDDA.t371 two_stage_opamp_dummy_magic_23_0.V_err_gate.t12 VDDA.t372 sky130_fd_pr__pfet_01v8 ad=0.2 pd=1.8 as=0.1 ps=0.9 w=0.5 l=0.15
X109 VDDA.t342 VDDA.t343 sky130_fd_pr__cap_mim_m3_1 l=2 w=2
X110 VOUT-.t35 two_stage_opamp_dummy_magic_23_0.cap_res_X.t122 sky130_fd_pr__cap_mim_m3_1 l=2 w=2
X111 VOUT+.t28 two_stage_opamp_dummy_magic_23_0.cap_res_Y.t128 sky130_fd_pr__cap_mim_m3_1 l=2 w=2
X112 w_6100_17280.t59 bgr_11_0.1st_Vout_1.t10 VDDA.t54 w_6100_17280.t58 sky130_fd_pr__pfet_01v8 ad=0.2 pd=1.4 as=0.2 ps=1.4 w=1 l=0.2
X113 w_7200_15600.t31 VDDA.t457 two_stage_opamp_dummy_magic_23_0.V_err_amp_ref.t3 w_7200_15600.t30 sky130_fd_pr__pfet_01v8 ad=0.6 pd=3.4 as=0.6 ps=3.4 w=3 l=0.5
X114 GNDA.t164 two_stage_opamp_dummy_magic_23_0.V_tail_gate.t13 two_stage_opamp_dummy_magic_23_0.V_source.t38 GNDA.t163 sky130_fd_pr__nfet_01v8 ad=0.5 pd=2.9 as=0.5 ps=2.9 w=2.5 l=0.15
X115 VOUT-.t36 two_stage_opamp_dummy_magic_23_0.cap_res_X.t121 sky130_fd_pr__cap_mim_m3_1 l=2 w=2
X116 VOUT-.t37 two_stage_opamp_dummy_magic_23_0.cap_res_X.t120 sky130_fd_pr__cap_mim_m3_1 l=2 w=2
X117 VOUT+.t29 two_stage_opamp_dummy_magic_23_0.cap_res_Y.t127 sky130_fd_pr__cap_mim_m3_1 l=2 w=2
X118 GNDA.t447 GNDA.t445 two_stage_opamp_dummy_magic_23_0.Vb1.t9 GNDA.t446 sky130_fd_pr__nfet_01v8 ad=0.6 pd=3.8 as=0.3 ps=1.9 w=1.5 l=0.15
X119 VDDA.t458 GNDA.t539 sky130_fd_pr__cap_mim_m3_1 l=2 w=2
X120 VDDA.t397 w_7200_15600.t43 w_7200_15600.t45 w_7200_15600.t44 sky130_fd_pr__pfet_01v8 ad=0.2 pd=1.4 as=0.45 ps=2.9 w=1 l=0.15
X121 two_stage_opamp_dummy_magic_23_0.VD1.t8 two_stage_opamp_dummy_magic_23_0.Vb1.t15 two_stage_opamp_dummy_magic_23_0.X.t5 GNDA.t130 sky130_fd_pr__nfet_01v8 ad=0.3 pd=1.9 as=0.3 ps=1.9 w=1.5 l=0.15
X122 two_stage_opamp_dummy_magic_23_0.V_CMFB_S1.t9 two_stage_opamp_dummy_magic_23_0.X.t27 GNDA.t331 VDDA.t88 sky130_fd_pr__pfet_01v8 ad=0.4 pd=2.4 as=0.4 ps=2.4 w=2 l=0.15
X123 VOUT-.t38 two_stage_opamp_dummy_magic_23_0.cap_res_X.t119 sky130_fd_pr__cap_mim_m3_1 l=2 w=2
X124 two_stage_opamp_dummy_magic_23_0.V_CMFB_S1.t8 two_stage_opamp_dummy_magic_23_0.X.t28 GNDA.t301 VDDA.t72 sky130_fd_pr__pfet_01v8 ad=0.4 pd=2.4 as=0.4 ps=2.4 w=2 l=0.15
X125 VDDA.t459 GNDA.t535 sky130_fd_pr__cap_mim_m3_1 l=2 w=2
X126 VDDA.t460 GNDA.t536 sky130_fd_pr__cap_mim_m3_1 l=2 w=2
X127 VDDA.t461 GNDA.t537 sky130_fd_pr__cap_mim_m3_1 l=2 w=2
X128 VDDA.t462 GNDA.t533 sky130_fd_pr__cap_mim_m3_1 l=2 w=2
X129 VDDA.t364 VDDA.t365 sky130_fd_pr__cap_mim_m3_1 l=2 w=2
X130 VOUT+.t30 two_stage_opamp_dummy_magic_23_0.cap_res_Y.t126 sky130_fd_pr__cap_mim_m3_1 l=2 w=2
X131 a_12070_24908.t1 bgr_11_0.V_CUR_REF_REG.t0 GNDA.t289 sky130_fd_pr__res_xhigh_po_0p35 l=4
X132 VDDA.t138 two_stage_opamp_dummy_magic_23_0.Vb3.t11 two_stage_opamp_dummy_magic_23_0.VD4.t13 VDDA.t137 sky130_fd_pr__pfet_01v8 ad=0.7 pd=3.9 as=0.7 ps=3.9 w=3.5 l=0.2
X133 VOUT+.t31 two_stage_opamp_dummy_magic_23_0.cap_res_Y.t125 sky130_fd_pr__cap_mim_m3_1 l=2 w=2
X134 VOUT-.t39 two_stage_opamp_dummy_magic_23_0.cap_res_X.t118 sky130_fd_pr__cap_mim_m3_1 l=2 w=2
X135 VDDA.t463 GNDA.t534 sky130_fd_pr__cap_mim_m3_1 l=2 w=2
X136 VOUT+.t32 two_stage_opamp_dummy_magic_23_0.cap_res_Y.t124 sky130_fd_pr__cap_mim_m3_1 l=2 w=2
X137 VOUT+.t33 two_stage_opamp_dummy_magic_23_0.cap_res_Y.t123 sky130_fd_pr__cap_mim_m3_1 l=2 w=2
X138 VDDA.t464 bgr_11_0.cap_res2.t18 sky130_fd_pr__cap_mim_m3_1 l=2 w=2
X139 VDDA.t465 GNDA.t529 sky130_fd_pr__cap_mim_m3_1 l=2 w=2
X140 VDDA.t370 VDDA.t369 w_6100_17280.t77 w_6100_17280.t76 sky130_fd_pr__pfet_01v8 ad=0.2 pd=1.4 as=0.2 ps=1.4 w=1 l=0.2
X141 VDDA.t466 GNDA.t530 sky130_fd_pr__cap_mim_m3_1 l=2 w=2
X142 two_stage_opamp_dummy_magic_23_0.X.t13 two_stage_opamp_dummy_magic_23_0.Vb1.t16 two_stage_opamp_dummy_magic_23_0.VD1.t7 GNDA.t7 sky130_fd_pr__nfet_01v8 ad=0.3 pd=1.9 as=0.3 ps=1.9 w=1.5 l=0.15
X143 VDDA.t368 VDDA.t366 VOUT-.t13 VDDA.t367 sky130_fd_pr__pfet_01v8 ad=2.4 pd=12.8 as=1.2 ps=6.4 w=6 l=0.15
X144 GNDA.t98 a_6520_18930# bgr_11_0.V_p_2.t0 GNDA.t97 sky130_fd_pr__nfet_01v8 ad=1 pd=5.8 as=1 ps=5.8 w=2.5 l=5
X145 VDDA.t363 VDDA.t361 bgr_11_0.NFET_GATE_10uA.t4 VDDA.t362 sky130_fd_pr__pfet_01v8 ad=0.4 pd=2.8 as=0.2 ps=1.4 w=1 l=0.15
X146 VDDA.t467 GNDA.t531 sky130_fd_pr__cap_mim_m3_1 l=2 w=2
X147 w_6100_17280.t23 bgr_11_0.V_mir1.t10 bgr_11_0.V_mir1.t11 w_6100_17280.t22 sky130_fd_pr__pfet_01v8 ad=0.2 pd=1.4 as=0.2 ps=1.4 w=1 l=0.2
X148 VDDA.t468 GNDA.t527 sky130_fd_pr__cap_mim_m3_1 l=2 w=2
X149 VOUT+.t34 two_stage_opamp_dummy_magic_23_0.cap_res_Y.t122 sky130_fd_pr__cap_mim_m3_1 l=2 w=2
X150 bgr_11_0.1st_Vout_1.t11 bgr_11_0.cap_res1.t18 sky130_fd_pr__cap_mim_m3_1 l=2 w=2
X151 VOUT+.t35 two_stage_opamp_dummy_magic_23_0.cap_res_Y.t121 sky130_fd_pr__cap_mim_m3_1 l=2 w=2
X152 two_stage_opamp_dummy_magic_23_0.V_err_amp_ref.t1 w_7200_15600.t40 w_7200_15600.t42 w_7200_15600.t41 sky130_fd_pr__pfet_01v8 ad=0.6 pd=3.4 as=1.2 ps=6.8 w=3 l=0.5
X153 VDDA.t75 two_stage_opamp_dummy_magic_23_0.V_err_gate.t17 a_7460_6300.t9 VDDA.t74 sky130_fd_pr__pfet_01v8 ad=0.1 pd=0.9 as=0.1 ps=0.9 w=0.5 l=0.15
X154 GNDA.t53 two_stage_opamp_dummy_magic_23_0.err_amp_mir.t15 two_stage_opamp_dummy_magic_23_0.err_amp_mir.t16 GNDA.t52 sky130_fd_pr__nfet_01v8 ad=0.1 pd=0.9 as=0.1 ps=0.9 w=0.5 l=0.15
X155 VDDA.t469 bgr_11_0.cap_res2.t17 sky130_fd_pr__cap_mim_m3_1 l=2 w=2
X156 VDDA.t470 GNDA.t528 sky130_fd_pr__cap_mim_m3_1 l=2 w=2
X157 VOUT-.t40 two_stage_opamp_dummy_magic_23_0.cap_res_X.t117 sky130_fd_pr__cap_mim_m3_1 l=2 w=2
X158 two_stage_opamp_dummy_magic_23_0.Vb2_Vb3.t6 two_stage_opamp_dummy_magic_23_0.Vb2_Vb3.t3 two_stage_opamp_dummy_magic_23_0.Vb2_Vb3.t5 two_stage_opamp_dummy_magic_23_0.Vb2_Vb3.t4 sky130_fd_pr__pfet_01v8 ad=1.4 pd=7.8 as=0 ps=0 w=3.5 l=0.2
X159 VDDA.t471 GNDA.t524 sky130_fd_pr__cap_mim_m3_1 l=2 w=2
X160 VOUT-.t41 two_stage_opamp_dummy_magic_23_0.cap_res_X.t116 sky130_fd_pr__cap_mim_m3_1 l=2 w=2
X161 VOUT+.t36 two_stage_opamp_dummy_magic_23_0.cap_res_Y.t120 sky130_fd_pr__cap_mim_m3_1 l=2 w=2
X162 w_6100_17280.t75 VDDA.t359 VDDA.t360 w_6100_17280.t74 sky130_fd_pr__pfet_01v8 ad=0.2 pd=1.4 as=0.2 ps=1.4 w=1 l=0.2
X163 GNDA.t532 VDDA.t356 VDDA.t358 VDDA.t357 sky130_fd_pr__pfet_01v8 ad=0.4 pd=2.4 as=0.8 ps=4.8 w=2 l=0.15
X164 two_stage_opamp_dummy_magic_23_0.Y.t0 two_stage_opamp_dummy_magic_23_0.Vb1.t17 two_stage_opamp_dummy_magic_23_0.VD2.t9 GNDA.t8 sky130_fd_pr__nfet_01v8 ad=0.3 pd=1.9 as=0.3 ps=1.9 w=1.5 l=0.15
X165 two_stage_opamp_dummy_magic_23_0.V_source.t37 two_stage_opamp_dummy_magic_23_0.V_tail_gate.t14 GNDA.t555 GNDA.t140 sky130_fd_pr__nfet_01v8 ad=0.5 pd=2.9 as=0.5 ps=2.9 w=2.5 l=0.15
X166 two_stage_opamp_dummy_magic_23_0.V_source.t36 two_stage_opamp_dummy_magic_23_0.V_tail_gate.t15 GNDA.t311 GNDA.t310 sky130_fd_pr__nfet_01v8 ad=0.5 pd=2.9 as=0.5 ps=2.9 w=2.5 l=0.15
X167 VDDA.t136 two_stage_opamp_dummy_magic_23_0.Vb3.t12 two_stage_opamp_dummy_magic_23_0.VD4.t12 VDDA.t135 sky130_fd_pr__pfet_01v8 ad=0.7 pd=3.9 as=0.7 ps=3.9 w=3.5 l=0.2
X168 VOUT-.t42 two_stage_opamp_dummy_magic_23_0.cap_res_X.t115 sky130_fd_pr__cap_mim_m3_1 l=2 w=2
X169 VOUT-.t43 two_stage_opamp_dummy_magic_23_0.cap_res_X.t114 sky130_fd_pr__cap_mim_m3_1 l=2 w=2
X170 VOUT+.t37 two_stage_opamp_dummy_magic_23_0.cap_res_Y.t119 sky130_fd_pr__cap_mim_m3_1 l=2 w=2
X171 VDDA.t472 GNDA.t525 sky130_fd_pr__cap_mim_m3_1 l=2 w=2
X172 two_stage_opamp_dummy_magic_23_0.err_amp_mir.t5 VDDA.t353 VDDA.t355 VDDA.t354 sky130_fd_pr__pfet_01v8 ad=0.1 pd=0.9 as=0.2 ps=1.8 w=0.5 l=0.15
X173 VDDA.t473 GNDA.t526 sky130_fd_pr__cap_mim_m3_1 l=2 w=2
X174 VOUT+.t38 two_stage_opamp_dummy_magic_23_0.cap_res_Y.t118 sky130_fd_pr__cap_mim_m3_1 l=2 w=2
X175 VDDA.t474 GNDA.t306 sky130_fd_pr__cap_mim_m3_1 l=2 w=2
X176 bgr_11_0.START_UP.t5 VDDA.t475 w_7200_15600.t29 w_7200_15600.t28 sky130_fd_pr__pfet_01v8 ad=0.6 pd=3.4 as=0.6 ps=3.4 w=3 l=0.5
X177 VOUT+.t39 two_stage_opamp_dummy_magic_23_0.cap_res_Y.t117 sky130_fd_pr__cap_mim_m3_1 l=2 w=2
X178 two_stage_opamp_dummy_magic_23_0.X.t20 two_stage_opamp_dummy_magic_23_0.VD3.t35 two_stage_opamp_dummy_magic_23_0.VD3.t37 two_stage_opamp_dummy_magic_23_0.VD3.t36 sky130_fd_pr__pfet_01v8 ad=0.7 pd=3.9 as=1.4 ps=7.8 w=3.5 l=0.2
X179 VDDA.t476 GNDA.t307 sky130_fd_pr__cap_mim_m3_1 l=2 w=2
X180 VOUT+.t40 two_stage_opamp_dummy_magic_23_0.cap_res_Y.t116 sky130_fd_pr__cap_mim_m3_1 l=2 w=2
X181 VOUT+.t41 two_stage_opamp_dummy_magic_23_0.cap_res_Y.t115 sky130_fd_pr__cap_mim_m3_1 l=2 w=2
X182 VOUT-.t44 two_stage_opamp_dummy_magic_23_0.cap_res_X.t113 sky130_fd_pr__cap_mim_m3_1 l=2 w=2
X183 VOUT+.t42 two_stage_opamp_dummy_magic_23_0.cap_res_Y.t114 sky130_fd_pr__cap_mim_m3_1 l=2 w=2
X184 VDDA.t477 GNDA.t120 sky130_fd_pr__cap_mim_m3_1 l=2 w=2
X185 VDDA.t478 GNDA.t121 sky130_fd_pr__cap_mim_m3_1 l=2 w=2
X186 VDDA.t479 GNDA.t122 sky130_fd_pr__cap_mim_m3_1 l=2 w=2
X187 a_5700_24908.t1 two_stage_opamp_dummy_magic_23_0.V_err_amp_ref.t6 GNDA.t41 sky130_fd_pr__res_xhigh_po_0p35 l=4.28
X188 two_stage_opamp_dummy_magic_23_0.VD3.t29 two_stage_opamp_dummy_magic_23_0.Vb2.t13 two_stage_opamp_dummy_magic_23_0.X.t1 two_stage_opamp_dummy_magic_23_0.VD3.t28 sky130_fd_pr__pfet_01v8 ad=0.7 pd=3.9 as=0.7 ps=3.9 w=3.5 l=0.2
X189 VOUT+.t14 two_stage_opamp_dummy_magic_23_0.Y.t30 VDDA.t177 VDDA.t176 sky130_fd_pr__pfet_01v8 ad=1.2 pd=6.4 as=1.2 ps=6.4 w=6 l=0.15
X190 VOUT-.t45 two_stage_opamp_dummy_magic_23_0.cap_res_X.t112 sky130_fd_pr__cap_mim_m3_1 l=2 w=2
X191 bgr_11_0.Vin+.t5 VDDA.t480 w_7200_15600.t27 w_7200_15600.t26 sky130_fd_pr__pfet_01v8 ad=0.6 pd=3.4 as=0.6 ps=3.4 w=3 l=0.5
X192 w_6100_17280.t49 bgr_11_0.V_mir2.t13 VDDA.t57 w_6100_17280.t48 sky130_fd_pr__pfet_01v8 ad=0.2 pd=1.4 as=0.2 ps=1.4 w=1 l=0.2
X193 VDDA.t481 bgr_11_0.cap_res2.t16 sky130_fd_pr__cap_mim_m3_1 l=2 w=2
X194 VOUT-.t46 two_stage_opamp_dummy_magic_23_0.cap_res_X.t111 sky130_fd_pr__cap_mim_m3_1 l=2 w=2
X195 VOUT+.t43 two_stage_opamp_dummy_magic_23_0.cap_res_Y.t113 sky130_fd_pr__cap_mim_m3_1 l=2 w=2
X196 VDDA.t482 GNDA.t58 sky130_fd_pr__cap_mim_m3_1 l=2 w=2
X197 bgr_11_0.V_mir1.t12 bgr_11_0.Vin-.t8 VDDA.t28 GNDA.t125 sky130_fd_pr__nfet_01v8 ad=1 pd=5.8 as=0.5 ps=2.9 w=2.5 l=0.2
X198 VDDA.t483 GNDA.t36 sky130_fd_pr__cap_mim_m3_1 l=2 w=2
X199 two_stage_opamp_dummy_magic_23_0.VD2.t14 VIN+.t1 two_stage_opamp_dummy_magic_23_0.V_source.t11 GNDA.t207 sky130_fd_pr__nfet_01v8 ad=0.3 pd=1.9 as=0.3 ps=1.9 w=1.5 l=0.15
X200 two_stage_opamp_dummy_magic_23_0.V_CMFB_S2.t12 two_stage_opamp_dummy_magic_23_0.X.t29 VDDA.t73 GNDA.t302 sky130_fd_pr__nfet_01v8 ad=0.6 pd=3.4 as=0.6 ps=3.4 w=3 l=0.15
X201 VDDA.t348 VDDA.t349 sky130_fd_pr__cap_mim_m3_1 l=2 w=2
X202 two_stage_opamp_dummy_magic_23_0.V_CMFB_S3.t8 two_stage_opamp_dummy_magic_23_0.Y.t31 GNDA.t241 VDDA.t175 sky130_fd_pr__pfet_01v8 ad=0.4 pd=2.4 as=0.4 ps=2.4 w=2 l=0.15
X203 two_stage_opamp_dummy_magic_23_0.VD2.t18 VIN+.t2 two_stage_opamp_dummy_magic_23_0.V_source.t19 GNDA.t208 sky130_fd_pr__nfet_01v8 ad=0.3 pd=1.9 as=0.3 ps=1.9 w=1.5 l=0.15
X204 two_stage_opamp_dummy_magic_23_0.V_p_mir.t0 VIN+.t3 two_stage_opamp_dummy_magic_23_0.V_tail_gate.t0 GNDA.t140 sky130_fd_pr__nfet_01v8 ad=0.3 pd=1.9 as=0.3 ps=1.9 w=1.5 l=0.15
X205 VOUT+.t44 two_stage_opamp_dummy_magic_23_0.cap_res_Y.t112 sky130_fd_pr__cap_mim_m3_1 l=2 w=2
X206 VOUT+.t45 two_stage_opamp_dummy_magic_23_0.cap_res_Y.t111 sky130_fd_pr__cap_mim_m3_1 l=2 w=2
X207 VDDA.t484 GNDA.t37 sky130_fd_pr__cap_mim_m3_1 l=2 w=2
X208 VDDA.t352 VDDA.t350 two_stage_opamp_dummy_magic_23_0.VD4.t17 VDDA.t351 sky130_fd_pr__pfet_01v8 ad=1.4 pd=7.8 as=0.7 ps=3.9 w=3.5 l=0.2
X209 a_7460_6300.t17 two_stage_opamp_dummy_magic_23_0.V_err_amp_ref.t9 two_stage_opamp_dummy_magic_23_0.V_err_gate.t5 VDDA.t421 sky130_fd_pr__pfet_01v8 ad=0.1 pd=0.9 as=0.1 ps=0.9 w=0.5 l=0.15
X210 VDDA.t485 GNDA.t38 sky130_fd_pr__cap_mim_m3_1 l=2 w=2
X211 VOUT-.t47 two_stage_opamp_dummy_magic_23_0.cap_res_X.t110 sky130_fd_pr__cap_mim_m3_1 l=2 w=2
X212 VDDA.t486 GNDA.t145 sky130_fd_pr__cap_mim_m3_1 l=2 w=2
X213 VOUT+.t46 two_stage_opamp_dummy_magic_23_0.cap_res_Y.t110 sky130_fd_pr__cap_mim_m3_1 l=2 w=2
X214 VDDA.t347 VDDA.t344 VDDA.t346 VDDA.t345 sky130_fd_pr__pfet_01v8 ad=0.8 pd=4.8 as=0 ps=0 w=2 l=0.15
X215 GNDA.t63 two_stage_opamp_dummy_magic_23_0.V_tail_gate.t16 two_stage_opamp_dummy_magic_23_0.V_source.t35 GNDA.t62 sky130_fd_pr__nfet_01v8 ad=0.5 pd=2.9 as=0.5 ps=2.9 w=2.5 l=0.15
X216 VDDA.t487 GNDA.t146 sky130_fd_pr__cap_mim_m3_1 l=2 w=2
X217 a_6350_25058.t1 bgr_11_0.Vin+.t1 GNDA.t165 sky130_fd_pr__res_xhigh_po_0p35 l=6
X218 a_8260_1600.t3 two_stage_opamp_dummy_magic_23_0.Vb1.t4 two_stage_opamp_dummy_magic_23_0.Vb1.t5 GNDA.t167 sky130_fd_pr__nfet_01v8 ad=0.3 pd=1.9 as=0.3 ps=1.9 w=1.5 l=0.15
X219 VDDA.t488 GNDA.t147 sky130_fd_pr__cap_mim_m3_1 l=2 w=2
X220 two_stage_opamp_dummy_magic_23_0.V_CMFB_S1.t7 two_stage_opamp_dummy_magic_23_0.X.t30 GNDA.t304 VDDA.t76 sky130_fd_pr__pfet_01v8 ad=0.4 pd=2.4 as=0.4 ps=2.4 w=2 l=0.15
X221 VOUT-.t48 two_stage_opamp_dummy_magic_23_0.cap_res_X.t109 sky130_fd_pr__cap_mim_m3_1 l=2 w=2
X222 VOUT+.t47 two_stage_opamp_dummy_magic_23_0.cap_res_Y.t109 sky130_fd_pr__cap_mim_m3_1 l=2 w=2
X223 VOUT-.t49 two_stage_opamp_dummy_magic_23_0.cap_res_X.t108 sky130_fd_pr__cap_mim_m3_1 l=2 w=2
X224 two_stage_opamp_dummy_magic_23_0.VD3.t11 VDDA.t339 VDDA.t341 VDDA.t340 sky130_fd_pr__pfet_01v8 ad=0.7 pd=3.9 as=1.4 ps=7.8 w=3.5 l=0.2
X225 VDDA.t489 GNDA.t185 sky130_fd_pr__cap_mim_m3_1 l=2 w=2
X226 VDDA.t490 GNDA.t186 sky130_fd_pr__cap_mim_m3_1 l=2 w=2
X227 VOUT-.t50 two_stage_opamp_dummy_magic_23_0.cap_res_X.t107 sky130_fd_pr__cap_mim_m3_1 l=2 w=2
X228 VDDA.t491 GNDA.t187 sky130_fd_pr__cap_mim_m3_1 l=2 w=2
X229 bgr_11_0.V_mir2.t11 bgr_11_0.V_mir2.t10 w_6100_17280.t31 w_6100_17280.t30 sky130_fd_pr__pfet_01v8 ad=0.2 pd=1.4 as=0.2 ps=1.4 w=1 l=0.2
X230 w_7200_15600.t25 VDDA.t492 bgr_11_0.Vin-.t7 w_7200_15600.t24 sky130_fd_pr__pfet_01v8 ad=0.6 pd=3.4 as=0.6 ps=3.4 w=3 l=0.5
X231 VDDA.t169 two_stage_opamp_dummy_magic_23_0.Y.t32 two_stage_opamp_dummy_magic_23_0.V_CMFB_S4.t12 GNDA.t587 sky130_fd_pr__nfet_01v8 ad=0.6 pd=3.4 as=0.6 ps=3.4 w=3 l=0.15
X232 VOUT-.t51 two_stage_opamp_dummy_magic_23_0.cap_res_X.t106 sky130_fd_pr__cap_mim_m3_1 l=2 w=2
X233 VDDA.t493 GNDA.t247 sky130_fd_pr__cap_mim_m3_1 l=2 w=2
X234 VOUT-.t52 two_stage_opamp_dummy_magic_23_0.cap_res_X.t105 sky130_fd_pr__cap_mim_m3_1 l=2 w=2
X235 VOUT-.t53 two_stage_opamp_dummy_magic_23_0.cap_res_X.t104 sky130_fd_pr__cap_mim_m3_1 l=2 w=2
X236 VOUT-.t54 two_stage_opamp_dummy_magic_23_0.cap_res_X.t103 sky130_fd_pr__cap_mim_m3_1 l=2 w=2
X237 VDDA.t494 GNDA.t248 sky130_fd_pr__cap_mim_m3_1 l=2 w=2
X238 VDDA.t78 two_stage_opamp_dummy_magic_23_0.X.t31 VOUT-.t7 VDDA.t77 sky130_fd_pr__pfet_01v8 ad=1.2 pd=6.4 as=1.2 ps=6.4 w=6 l=0.15
X239 GNDA.t237 bgr_11_0.NFET_GATE_10uA.t8 two_stage_opamp_dummy_magic_23_0.Vb3.t3 GNDA.t236 sky130_fd_pr__nfet_01v8 ad=0.2 pd=1.4 as=0.2 ps=1.4 w=1 l=0.15
X240 VDDA.t303 VDDA.t304 sky130_fd_pr__cap_mim_m3_1 l=2 w=2
X241 VDDA.t495 GNDA.t168 sky130_fd_pr__cap_mim_m3_1 l=2 w=2
X242 GNDA.t316 two_stage_opamp_dummy_magic_23_0.err_amp_mir.t13 two_stage_opamp_dummy_magic_23_0.err_amp_mir.t14 GNDA.t315 sky130_fd_pr__nfet_01v8 ad=0.1 pd=0.9 as=0.1 ps=0.9 w=0.5 l=0.15
X243 VOUT-.t55 two_stage_opamp_dummy_magic_23_0.cap_res_X.t102 sky130_fd_pr__cap_mim_m3_1 l=2 w=2
X244 VOUT+.t48 two_stage_opamp_dummy_magic_23_0.cap_res_Y.t108 sky130_fd_pr__cap_mim_m3_1 l=2 w=2
X245 VOUT+.t49 two_stage_opamp_dummy_magic_23_0.cap_res_Y.t107 sky130_fd_pr__cap_mim_m3_1 l=2 w=2
X246 VOUT+.t50 two_stage_opamp_dummy_magic_23_0.cap_res_Y.t106 sky130_fd_pr__cap_mim_m3_1 l=2 w=2
X247 VOUT+.t51 two_stage_opamp_dummy_magic_23_0.cap_res_Y.t105 sky130_fd_pr__cap_mim_m3_1 l=2 w=2
X248 VDDA.t418 two_stage_opamp_dummy_magic_23_0.V_err_gate.t18 two_stage_opamp_dummy_magic_23_0.V_err_p.t21 VDDA.t417 sky130_fd_pr__pfet_01v8 ad=0.1 pd=0.9 as=0.1 ps=0.9 w=0.5 l=0.15
X249 two_stage_opamp_dummy_magic_23_0.Y.t7 two_stage_opamp_dummy_magic_23_0.Vb1.t18 two_stage_opamp_dummy_magic_23_0.VD2.t8 GNDA.t207 sky130_fd_pr__nfet_01v8 ad=0.3 pd=1.9 as=0.3 ps=1.9 w=1.5 l=0.15
X250 VDDA.t496 GNDA.t169 sky130_fd_pr__cap_mim_m3_1 l=2 w=2
X251 VDDA.t497 GNDA.t170 sky130_fd_pr__cap_mim_m3_1 l=2 w=2
X252 two_stage_opamp_dummy_magic_23_0.Y.t8 two_stage_opamp_dummy_magic_23_0.Vb1.t19 two_stage_opamp_dummy_magic_23_0.VD2.t7 GNDA.t208 sky130_fd_pr__nfet_01v8 ad=0.3 pd=1.9 as=0.3 ps=1.9 w=1.5 l=0.15
X253 VDDA.t498 GNDA.t33 sky130_fd_pr__cap_mim_m3_1 l=2 w=2
X254 VOUT+.t52 two_stage_opamp_dummy_magic_23_0.cap_res_Y.t104 sky130_fd_pr__cap_mim_m3_1 l=2 w=2
X255 two_stage_opamp_dummy_magic_23_0.V_source.t34 two_stage_opamp_dummy_magic_23_0.V_tail_gate.t17 GNDA.t320 GNDA.t319 sky130_fd_pr__nfet_01v8 ad=0.5 pd=2.9 as=0.5 ps=2.9 w=2.5 l=0.15
X256 two_stage_opamp_dummy_magic_23_0.VD3.t27 two_stage_opamp_dummy_magic_23_0.Vb2.t14 two_stage_opamp_dummy_magic_23_0.X.t2 two_stage_opamp_dummy_magic_23_0.VD3.t26 sky130_fd_pr__pfet_01v8 ad=0.7 pd=3.9 as=0.7 ps=3.9 w=3.5 l=0.2
X257 GNDA.t444 GNDA.t442 VOUT+.t6 GNDA.t443 sky130_fd_pr__nfet_01v8 ad=2.8 pd=14.8 as=1.4 ps=7.4 w=7 l=0.6
X258 GNDA.t366 GNDA.t365 bgr_11_0.sky130_fd_pr__rf_pnp_05v5_W3p40L3p40_25.Emitter.t8 sky130_fd_pr__pnp_05v5_W3p40L3p40
**devattr s=462400,2720
X259 VDDA.t499 GNDA.t34 sky130_fd_pr__cap_mim_m3_1 l=2 w=2
X260 VOUT-.t56 two_stage_opamp_dummy_magic_23_0.cap_res_X.t101 sky130_fd_pr__cap_mim_m3_1 l=2 w=2
X261 two_stage_opamp_dummy_magic_23_0.VD3.t8 two_stage_opamp_dummy_magic_23_0.Vb3.t13 VDDA.t134 VDDA.t133 sky130_fd_pr__pfet_01v8 ad=0.7 pd=3.9 as=0.7 ps=3.9 w=3.5 l=0.2
X262 VDDA.t500 GNDA.t35 sky130_fd_pr__cap_mim_m3_1 l=2 w=2
X263 VDDA.t338 VDDA.t336 bgr_11_0.V_CMFB_S3.t5 VDDA.t337 sky130_fd_pr__pfet_01v8 ad=0.2 pd=1.4 as=0.2 ps=1.4 w=1 l=0.15
X264 two_stage_opamp_dummy_magic_23_0.VD4.t11 two_stage_opamp_dummy_magic_23_0.Vb3.t14 VDDA.t132 VDDA.t131 sky130_fd_pr__pfet_01v8 ad=0.7 pd=3.9 as=0.7 ps=3.9 w=3.5 l=0.2
X265 VDDA.t501 bgr_11_0.cap_res2.t15 sky130_fd_pr__cap_mim_m3_1 l=2 w=2
X266 VDDA.t502 GNDA.t209 sky130_fd_pr__cap_mim_m3_1 l=2 w=2