* PEX produced on Sun Aug 24 11:20:01 PM CEST 2025 using /foss/tools/osic-multitool/iic-pex.sh with m=3 and s=1
* NGSPICE file created from bgr_opamp_dummy_magic_19.ext - technology: sky130A

.subckt bgr_opamp_dummy_magic_19 VDDA GNDA VOUT+ VOUT- VIN+ VIN- GNDA_2 VDDA_2
X0 VDDA.t217 bgr_11_0.1st_Vout_2.t7 bgr_11_0.PFET_GATE_10uA.t5 VDDA.t216 sky130_fd_pr__pfet_01v8 ad=0.2 pd=1.4 as=0.2 ps=1.4 w=1 l=0.2
X1 VOUT+.t19 two_stage_opamp_dummy_magic_29_0.cap_res_Y.t143 sky130_fd_pr__cap_mim_m3_1 l=2 w=2
X2 VOUT+.t20 two_stage_opamp_dummy_magic_29_0.cap_res_Y.t142 sky130_fd_pr__cap_mim_m3_1 l=2 w=2
X3 VOUT+.t21 two_stage_opamp_dummy_magic_29_0.cap_res_Y.t141 sky130_fd_pr__cap_mim_m3_1 l=2 w=2
X4 VOUT+.t22 two_stage_opamp_dummy_magic_29_0.cap_res_Y.t140 sky130_fd_pr__cap_mim_m3_1 l=2 w=2
X5 GNDA_2.t163 GNDA_2.t161 two_stage_opamp_dummy_magic_29_0.Vb2.t3 GNDA_2.t162 sky130_fd_pr__nfet_01v8 ad=0.4 pd=2.8 as=0.2 ps=1.4 w=1 l=0.15
X6 VDDA.t20 two_stage_opamp_dummy_magic_29_0.Y.t25 VOUT+.t0 VDDA.t19 sky130_fd_pr__pfet_01v8 ad=1.2 pd=6.4 as=1.2 ps=6.4 w=6 l=0.15
X7 VDDA.t111 two_stage_opamp_dummy_magic_29_0.Y.t26 VOUT+.t5 VDDA.t110 sky130_fd_pr__pfet_01v8 ad=1.2 pd=6.4 as=1.2 ps=6.4 w=6 l=0.15
X8 GNDA_2.t278 two_stage_opamp_dummy_magic_29_0.V_b_2nd_stage.t2 VOUT-.t9 GNDA_2.t277 sky130_fd_pr__nfet_01v8 ad=1.4 pd=7.4 as=1.4 ps=7.4 w=7 l=0.6
X9 two_stage_opamp_dummy_magic_29_0.Vb2_2.t9 two_stage_opamp_dummy_magic_29_0.Vb2.t8 two_stage_opamp_dummy_magic_29_0.Vb2.t9 two_stage_opamp_dummy_magic_29_0.Vb2_2.t8 sky130_fd_pr__pfet_01v8 ad=0.7 pd=3.9 as=0.7 ps=3.9 w=3.5 l=0.2
X10 VOUT+.t23 two_stage_opamp_dummy_magic_29_0.cap_res_Y.t139 sky130_fd_pr__cap_mim_m3_1 l=2 w=2
X11 VDDA.t368 bgr_11_0.V_TOP.t14 two_stage_opamp_dummy_magic_29_0.V_err_amp_ref.t3 VDDA.t367 sky130_fd_pr__pfet_01v8 ad=0.6 pd=3.4 as=0.6 ps=3.4 w=3 l=0.5
X12 VOUT-.t19 two_stage_opamp_dummy_magic_29_0.cap_res_X.t142 sky130_fd_pr__cap_mim_m3_1 l=2 w=2
X13 two_stage_opamp_dummy_magic_29_0.V_CMFB_S1.t10 two_stage_opamp_dummy_magic_29_0.X.t25 GNDA_2.t180 VDDA.t75 sky130_fd_pr__pfet_01v8 ad=0.4 pd=2.4 as=0.4 ps=2.4 w=2 l=0.15
X14 bgr_11_0.1st_Vout_1.t7 bgr_11_0.cap_res1.t19 sky130_fd_pr__cap_mim_m3_1 l=2 w=2
X15 VOUT+.t24 two_stage_opamp_dummy_magic_29_0.cap_res_Y.t138 sky130_fd_pr__cap_mim_m3_1 l=2 w=2
X16 VOUT-.t20 two_stage_opamp_dummy_magic_29_0.cap_res_X.t141 sky130_fd_pr__cap_mim_m3_1 l=2 w=2
X17 two_stage_opamp_dummy_magic_29_0.Vb2.t5 bgr_11_0.NFET_GATE_10uA.t5 GNDA_2.t232 GNDA_2.t231 sky130_fd_pr__nfet_01v8 ad=0.2 pd=1.4 as=0.2 ps=1.4 w=1 l=0.15
X18 VOUT-.t21 two_stage_opamp_dummy_magic_29_0.cap_res_X.t140 sky130_fd_pr__cap_mim_m3_1 l=2 w=2
X19 bgr_11_0.V_TOP.t15 VDDA.t369 sky130_fd_pr__cap_mim_m3_1 l=2 w=2
X20 GNDA_2.t36 bgr_11_0.NFET_GATE_10uA.t6 two_stage_opamp_dummy_magic_29_0.Vb2.t1 GNDA_2.t35 sky130_fd_pr__nfet_01v8 ad=0.2 pd=1.4 as=0.2 ps=1.4 w=1 l=0.15
X21 two_stage_opamp_dummy_magic_29_0.Y.t17 two_stage_opamp_dummy_magic_29_0.Vb2.t11 two_stage_opamp_dummy_magic_29_0.VD4.t31 two_stage_opamp_dummy_magic_29_0.VD4.t30 sky130_fd_pr__pfet_01v8 ad=0.7 pd=3.9 as=0.7 ps=3.9 w=3.5 l=0.2
X22 two_stage_opamp_dummy_magic_29_0.V_CMFB_S2.t13 two_stage_opamp_dummy_magic_29_0.X.t26 VDDA.t73 GNDA_2.t178 sky130_fd_pr__nfet_01v8 ad=0.6 pd=3.4 as=0.6 ps=3.4 w=3 l=0.15
X23 VOUT+.t25 two_stage_opamp_dummy_magic_29_0.cap_res_Y.t137 sky130_fd_pr__cap_mim_m3_1 l=2 w=2
X24 VOUT+.t26 two_stage_opamp_dummy_magic_29_0.cap_res_Y.t136 sky130_fd_pr__cap_mim_m3_1 l=2 w=2
X25 VOUT+.t27 two_stage_opamp_dummy_magic_29_0.cap_res_Y.t135 sky130_fd_pr__cap_mim_m3_1 l=2 w=2
X26 bgr_11_0.START_UP_NFET1.t0 bgr_11_0.START_UP_NFET1 GNDA_2.t49 GNDA_2.t48 sky130_fd_pr__nfet_01v8 ad=0.2 pd=1.4 as=0.4 ps=2.8 w=1 l=10
X27 bgr_11_0.1st_Vout_1.t0 bgr_11_0.V_mir1.t13 VDDA.t8 VDDA.t7 sky130_fd_pr__pfet_01v8 ad=0.2 pd=1.4 as=0.2 ps=1.4 w=1 l=0.2
X28 VOUT-.t22 two_stage_opamp_dummy_magic_29_0.cap_res_X.t139 sky130_fd_pr__cap_mim_m3_1 l=2 w=2
X29 VOUT+.t28 two_stage_opamp_dummy_magic_29_0.cap_res_Y.t134 sky130_fd_pr__cap_mim_m3_1 l=2 w=2
X30 VOUT-.t23 two_stage_opamp_dummy_magic_29_0.cap_res_X.t138 sky130_fd_pr__cap_mim_m3_1 l=2 w=2
X31 VOUT+.t29 two_stage_opamp_dummy_magic_29_0.cap_res_Y.t133 sky130_fd_pr__cap_mim_m3_1 l=2 w=2
X32 two_stage_opamp_dummy_magic_29_0.Vb1_2.t3 two_stage_opamp_dummy_magic_29_0.Vb1.t9 two_stage_opamp_dummy_magic_29_0.Vb1.t10 GNDA_2.t106 sky130_fd_pr__nfet_01v8 ad=0.3 pd=1.9 as=0.3 ps=1.9 w=1.5 l=0.15
X33 two_stage_opamp_dummy_magic_29_0.VD2.t15 two_stage_opamp_dummy_magic_29_0.Vb1.t12 two_stage_opamp_dummy_magic_29_0.Y.t7 GNDA_2.t229 sky130_fd_pr__nfet_01v8 ad=0.3 pd=1.9 as=0.3 ps=1.9 w=1.5 l=0.15
X34 VOUT+.t30 two_stage_opamp_dummy_magic_29_0.cap_res_Y.t132 sky130_fd_pr__cap_mim_m3_1 l=2 w=2
X35 two_stage_opamp_dummy_magic_29_0.VD3.t36 two_stage_opamp_dummy_magic_29_0.Vb2.t12 two_stage_opamp_dummy_magic_29_0.X.t17 two_stage_opamp_dummy_magic_29_0.VD3.t35 sky130_fd_pr__pfet_01v8 ad=0.7 pd=3.9 as=0.7 ps=3.9 w=3.5 l=0.2
X36 VOUT-.t24 two_stage_opamp_dummy_magic_29_0.cap_res_X.t137 sky130_fd_pr__cap_mim_m3_1 l=2 w=2
X37 two_stage_opamp_dummy_magic_29_0.VD4.t5 two_stage_opamp_dummy_magic_29_0.Vb3.t8 VDDA.t117 VDDA.t116 sky130_fd_pr__pfet_01v8 ad=0.7 pd=3.9 as=0.7 ps=3.9 w=3.5 l=0.2
X38 bgr_11_0.V_TOP.t16 VDDA.t87 sky130_fd_pr__cap_mim_m3_1 l=2 w=2
X39 VOUT-.t25 two_stage_opamp_dummy_magic_29_0.cap_res_X.t136 sky130_fd_pr__cap_mim_m3_1 l=2 w=2
X40 VDDA.t45 two_stage_opamp_dummy_magic_29_0.X.t27 VOUT-.t1 VDDA.t44 sky130_fd_pr__pfet_01v8 ad=1.2 pd=6.4 as=1.2 ps=6.4 w=6 l=0.15
X41 VOUT+.t31 two_stage_opamp_dummy_magic_29_0.cap_res_Y.t131 sky130_fd_pr__cap_mim_m3_1 l=2 w=2
X42 VOUT-.t26 two_stage_opamp_dummy_magic_29_0.cap_res_X.t135 sky130_fd_pr__cap_mim_m3_1 l=2 w=2
X43 VOUT+.t32 two_stage_opamp_dummy_magic_29_0.cap_res_Y.t130 sky130_fd_pr__cap_mim_m3_1 l=2 w=2
X44 a_6350_30238.t0 bgr_11_0.Vin+.t4 GNDA_2.t16 sky130_fd_pr__res_xhigh_po_0p35 l=6
X45 VDDA.t36 two_stage_opamp_dummy_magic_29_0.Vb3.t9 two_stage_opamp_dummy_magic_29_0.VD3.t1 VDDA.t35 sky130_fd_pr__pfet_01v8 ad=0.7 pd=3.9 as=0.7 ps=3.9 w=3.5 l=0.2
X46 two_stage_opamp_dummy_magic_29_0.V_CMFB_S3.t16 two_stage_opamp_dummy_magic_29_0.Y.t27 GNDA_2.t236 VDDA.t165 sky130_fd_pr__pfet_01v8 ad=0.4 pd=2.4 as=0.4 ps=2.4 w=2 l=0.15
X47 VOUT-.t27 two_stage_opamp_dummy_magic_29_0.cap_res_X.t134 sky130_fd_pr__cap_mim_m3_1 l=2 w=2
X48 VOUT-.t28 two_stage_opamp_dummy_magic_29_0.cap_res_X.t133 sky130_fd_pr__cap_mim_m3_1 l=2 w=2
X49 VOUT+.t33 two_stage_opamp_dummy_magic_29_0.cap_res_Y.t129 sky130_fd_pr__cap_mim_m3_1 l=2 w=2
X50 bgr_11_0.V_TOP.t17 VDDA.t88 sky130_fd_pr__cap_mim_m3_1 l=2 w=2
X51 two_stage_opamp_dummy_magic_29_0.V_err_gate.t2 bgr_11_0.NFET_GATE_10uA.t7 GNDA_2.t291 GNDA_2.t290 sky130_fd_pr__nfet_01v8 ad=0.2 pd=1.4 as=0.2 ps=1.4 w=1 l=0.15
X52 VDDA.t377 a_6540_22450.t11 a_6540_22450.t12 VDDA.t376 sky130_fd_pr__pfet_01v8 ad=0.2 pd=1.4 as=0.2 ps=1.4 w=1 l=0.2
X53 VOUT-.t29 two_stage_opamp_dummy_magic_29_0.cap_res_X.t132 sky130_fd_pr__cap_mim_m3_1 l=2 w=2
X54 VDDA.t197 bgr_11_0.V_mir1.t11 bgr_11_0.V_mir1.t12 VDDA.t196 sky130_fd_pr__pfet_01v8 ad=0.2 pd=1.4 as=0.2 ps=1.4 w=1 l=0.2
X55 VOUT+.t34 two_stage_opamp_dummy_magic_29_0.cap_res_Y.t128 sky130_fd_pr__cap_mim_m3_1 l=2 w=2
X56 VOUT+.t35 two_stage_opamp_dummy_magic_29_0.cap_res_Y.t127 sky130_fd_pr__cap_mim_m3_1 l=2 w=2
X57 two_stage_opamp_dummy_magic_29_0.V_CMFB_S4.t14 two_stage_opamp_dummy_magic_29_0.Y.t28 VDDA.t153 GNDA_2.t228 sky130_fd_pr__nfet_01v8 ad=0.6 pd=3.4 as=0.6 ps=3.4 w=3 l=0.15
X58 two_stage_opamp_dummy_magic_29_0.VD2.t0 VIN+.t0 two_stage_opamp_dummy_magic_29_0.V_source.t37 GNDA_2.t25 sky130_fd_pr__nfet_01v8 ad=0.3 pd=1.9 as=0.3 ps=1.9 w=1.5 l=0.15
X59 VOUT+.t36 two_stage_opamp_dummy_magic_29_0.cap_res_Y.t126 sky130_fd_pr__cap_mim_m3_1 l=2 w=2
X60 VOUT+.t37 two_stage_opamp_dummy_magic_29_0.cap_res_Y.t125 sky130_fd_pr__cap_mim_m3_1 l=2 w=2
X61 VOUT+.t38 two_stage_opamp_dummy_magic_29_0.cap_res_Y.t124 sky130_fd_pr__cap_mim_m3_1 l=2 w=2
X62 VOUT+.t39 two_stage_opamp_dummy_magic_29_0.cap_res_Y.t123 sky130_fd_pr__cap_mim_m3_1 l=2 w=2
X63 VOUT-.t30 two_stage_opamp_dummy_magic_29_0.cap_res_X.t131 sky130_fd_pr__cap_mim_m3_1 l=2 w=2
X64 two_stage_opamp_dummy_magic_29_0.V_source.t12 two_stage_opamp_dummy_magic_29_0.V_tail_gate.t12 GNDA_2.t63 GNDA_2.t6 sky130_fd_pr__nfet_01v8 ad=0.5 pd=2.9 as=0.5 ps=2.9 w=2.5 l=0.15
X65 two_stage_opamp_dummy_magic_29_0.V_CMFB_S3.t4 bgr_11_0.PFET_GATE_10uA.t10 VDDA.t253 VDDA.t252 sky130_fd_pr__pfet_01v8 ad=0.2 pd=1.4 as=0.2 ps=1.4 w=1 l=0.15
X66 VOUT-.t31 two_stage_opamp_dummy_magic_29_0.cap_res_X.t130 sky130_fd_pr__cap_mim_m3_1 l=2 w=2
X67 VDDA.t251 bgr_11_0.PFET_GATE_10uA.t11 two_stage_opamp_dummy_magic_29_0.V_CMFB_S3.t3 VDDA.t250 sky130_fd_pr__pfet_01v8 ad=0.2 pd=1.4 as=0.2 ps=1.4 w=1 l=0.15
X68 bgr_11_0.V_TOP.t18 VDDA.t81 sky130_fd_pr__cap_mim_m3_1 l=2 w=2
X69 bgr_11_0.cap_res1.t20 bgr_11_0.V_TOP.t13 GNDA_2.t284 sky130_fd_pr__res_high_po_0p35 l=2.05
X70 two_stage_opamp_dummy_magic_29_0.VD3.t34 two_stage_opamp_dummy_magic_29_0.Vb2.t13 two_stage_opamp_dummy_magic_29_0.X.t15 two_stage_opamp_dummy_magic_29_0.VD3.t33 sky130_fd_pr__pfet_01v8 ad=0.7 pd=3.9 as=0.7 ps=3.9 w=3.5 l=0.2
X71 VOUT-.t32 two_stage_opamp_dummy_magic_29_0.cap_res_X.t129 sky130_fd_pr__cap_mim_m3_1 l=2 w=2
X72 VOUT+.t40 two_stage_opamp_dummy_magic_29_0.cap_res_Y.t122 sky130_fd_pr__cap_mim_m3_1 l=2 w=2
X73 a_14420_3878.t1 two_stage_opamp_dummy_magic_29_0.V_tot.t3 GNDA_2.t289 sky130_fd_pr__res_xhigh_po_0p35 l=1.75
X74 VOUT+.t41 two_stage_opamp_dummy_magic_29_0.cap_res_Y.t121 sky130_fd_pr__cap_mim_m3_1 l=2 w=2
X75 VDDA.t390 two_stage_opamp_dummy_magic_29_0.Y.t29 VOUT+.t15 VDDA.t389 sky130_fd_pr__pfet_01v8 ad=1.2 pd=6.4 as=1.2 ps=6.4 w=6 l=0.15
X76 VOUT-.t33 two_stage_opamp_dummy_magic_29_0.cap_res_X.t128 sky130_fd_pr__cap_mim_m3_1 l=2 w=2
X77 VOUT+.t42 two_stage_opamp_dummy_magic_29_0.cap_res_Y.t120 sky130_fd_pr__cap_mim_m3_1 l=2 w=2
X78 VOUT-.t34 two_stage_opamp_dummy_magic_29_0.cap_res_X.t127 sky130_fd_pr__cap_mim_m3_1 l=2 w=2
X79 bgr_11_0.V_TOP.t19 VDDA.t82 sky130_fd_pr__cap_mim_m3_1 l=2 w=2
X80 VDDA.t363 VDDA.t361 two_stage_opamp_dummy_magic_29_0.VD3.t16 VDDA.t362 sky130_fd_pr__pfet_01v8 ad=1.4 pd=7.8 as=0.7 ps=3.9 w=3.5 l=0.2
X81 bgr_11_0.1st_Vout_2.t8 bgr_11_0.cap_res2.t20 sky130_fd_pr__cap_mim_m3_1 l=2 w=2
X82 GNDA_2.t73 GNDA_2.t160 bgr_11_0.sky130_fd_pr__rf_pnp_05v5_W3p40L3p40_25.Emitter.t7 sky130_fd_pr__pnp_05v5_W3p40L3p40
**devattr s=462400,2720
X83 two_stage_opamp_dummy_magic_29_0.V_CMFB_S1.t9 two_stage_opamp_dummy_magic_29_0.X.t28 GNDA_2.t211 VDDA.t113 sky130_fd_pr__pfet_01v8 ad=0.4 pd=2.4 as=0.4 ps=2.4 w=2 l=0.15
X84 VOUT+.t43 two_stage_opamp_dummy_magic_29_0.cap_res_Y.t119 sky130_fd_pr__cap_mim_m3_1 l=2 w=2
X85 VOUT+.t44 two_stage_opamp_dummy_magic_29_0.cap_res_Y.t118 sky130_fd_pr__cap_mim_m3_1 l=2 w=2
X86 VOUT-.t35 two_stage_opamp_dummy_magic_29_0.cap_res_X.t126 sky130_fd_pr__cap_mim_m3_1 l=2 w=2
X87 VDDA.t411 two_stage_opamp_dummy_magic_29_0.Y.t30 two_stage_opamp_dummy_magic_29_0.V_CMFB_S4.t13 GNDA_2.t288 sky130_fd_pr__nfet_01v8 ad=0.6 pd=3.4 as=0.6 ps=3.4 w=3 l=0.15
X88 VOUT+.t45 two_stage_opamp_dummy_magic_29_0.cap_res_Y.t117 sky130_fd_pr__cap_mim_m3_1 l=2 w=2
X89 GNDA_2.t64 two_stage_opamp_dummy_magic_29_0.V_tail_gate.t13 two_stage_opamp_dummy_magic_29_0.V_source.t13 GNDA_2.t6 sky130_fd_pr__nfet_01v8 ad=0.5 pd=2.9 as=0.5 ps=2.9 w=2.5 l=0.15
X90 two_stage_opamp_dummy_magic_29_0.V_CMFB_S2.t12 two_stage_opamp_dummy_magic_29_0.X.t29 VDDA.t131 GNDA_2.t220 sky130_fd_pr__nfet_01v8 ad=0.6 pd=3.4 as=0.6 ps=3.4 w=3 l=0.15
X91 GNDA_2.t57 two_stage_opamp_dummy_magic_29_0.V_tail_gate.t14 two_stage_opamp_dummy_magic_29_0.V_source.t11 GNDA_2.t6 sky130_fd_pr__nfet_01v8 ad=0.5 pd=2.9 as=0.5 ps=2.9 w=2.5 l=0.15
X92 VDDA.t215 bgr_11_0.1st_Vout_2.t9 bgr_11_0.PFET_GATE_10uA.t3 VDDA.t214 sky130_fd_pr__pfet_01v8 ad=0.2 pd=1.4 as=0.2 ps=1.4 w=1 l=0.2
X93 two_stage_opamp_dummy_magic_29_0.cap_res_Y.t0 two_stage_opamp_dummy_magic_29_0.Y.t2 GNDA_2.t54 sky130_fd_pr__res_high_po_1p41 l=1.41
X94 bgr_11_0.1st_Vout_2.t10 bgr_11_0.cap_res2.t19 sky130_fd_pr__cap_mim_m3_1 l=2 w=2
X95 two_stage_opamp_dummy_magic_29_0.Vb1.t4 two_stage_opamp_dummy_magic_29_0.Vb1.t3 two_stage_opamp_dummy_magic_29_0.Vb1_2.t2 GNDA_2.t106 sky130_fd_pr__nfet_01v8 ad=0.3 pd=1.9 as=0.3 ps=1.9 w=1.5 l=0.15
X96 two_stage_opamp_dummy_magic_29_0.V_tail_gate.t11 bgr_11_0.PFET_GATE_10uA.t12 VDDA.t249 VDDA.t248 sky130_fd_pr__pfet_01v8 ad=0.2 pd=1.4 as=0.2 ps=1.4 w=1 l=0.15
X97 two_stage_opamp_dummy_magic_29_0.VD2.t14 two_stage_opamp_dummy_magic_29_0.Vb1.t13 two_stage_opamp_dummy_magic_29_0.Y.t1 GNDA_2.t43 sky130_fd_pr__nfet_01v8 ad=0.3 pd=1.9 as=0.3 ps=1.9 w=1.5 l=0.15
X98 VOUT-.t36 two_stage_opamp_dummy_magic_29_0.cap_res_X.t125 sky130_fd_pr__cap_mim_m3_1 l=2 w=2
X99 VOUT+.t46 two_stage_opamp_dummy_magic_29_0.cap_res_Y.t116 sky130_fd_pr__cap_mim_m3_1 l=2 w=2
X100 bgr_11_0.sky130_fd_pr__rf_pnp_05v5_W3p40L3p40_25.Emitter.t8 bgr_11_0.Vin+.t5 GNDA_2.t276 sky130_fd_pr__res_xhigh_po_0p35 l=2.3
X101 VOUT+.t47 two_stage_opamp_dummy_magic_29_0.cap_res_Y.t115 sky130_fd_pr__cap_mim_m3_1 l=2 w=2
X102 bgr_11_0.1st_Vout_1.t8 bgr_11_0.cap_res1.t18 sky130_fd_pr__cap_mim_m3_1 l=2 w=2
X103 VDDA.t49 two_stage_opamp_dummy_magic_29_0.X.t30 VOUT-.t2 VDDA.t48 sky130_fd_pr__pfet_01v8 ad=1.2 pd=6.4 as=1.2 ps=6.4 w=6 l=0.15
X104 bgr_11_0.1st_Vout_2.t11 bgr_11_0.cap_res2.t18 sky130_fd_pr__cap_mim_m3_1 l=2 w=2
X105 VOUT+.t48 two_stage_opamp_dummy_magic_29_0.cap_res_Y.t114 sky130_fd_pr__cap_mim_m3_1 l=2 w=2
X106 bgr_11_0.V_TOP.t20 VDDA.t395 sky130_fd_pr__cap_mim_m3_1 l=2 w=2
X107 VOUT+.t49 two_stage_opamp_dummy_magic_29_0.cap_res_Y.t113 sky130_fd_pr__cap_mim_m3_1 l=2 w=2
X108 VOUT+.t50 two_stage_opamp_dummy_magic_29_0.cap_res_Y.t112 sky130_fd_pr__cap_mim_m3_1 l=2 w=2
X109 VDDA.t247 bgr_11_0.PFET_GATE_10uA.t13 two_stage_opamp_dummy_magic_29_0.V_CMFB_S1.t14 VDDA.t246 sky130_fd_pr__pfet_01v8 ad=0.2 pd=1.4 as=0.2 ps=1.4 w=1 l=0.15
X110 VOUT+.t51 two_stage_opamp_dummy_magic_29_0.cap_res_Y.t111 sky130_fd_pr__cap_mim_m3_1 l=2 w=2
X111 two_stage_opamp_dummy_magic_29_0.V_CMFB_S1.t16 VDDA.t358 VDDA.t360 VDDA.t359 sky130_fd_pr__pfet_01v8 ad=0.2 pd=1.4 as=0.4 ps=2.8 w=1 l=0.15
X112 two_stage_opamp_dummy_magic_29_0.V_CMFB_S3.t15 two_stage_opamp_dummy_magic_29_0.Y.t31 GNDA_2.t58 VDDA.t52 sky130_fd_pr__pfet_01v8 ad=0.4 pd=2.4 as=0.4 ps=2.4 w=2 l=0.15
X113 GNDA_2.t159 GNDA_2.t157 VOUT+.t14 GNDA_2.t158 sky130_fd_pr__nfet_01v8 ad=2.8 pd=14.8 as=1.4 ps=7.4 w=7 l=0.6
X114 VOUT+.t52 two_stage_opamp_dummy_magic_29_0.cap_res_Y.t110 sky130_fd_pr__cap_mim_m3_1 l=2 w=2
X115 VOUT+.t53 two_stage_opamp_dummy_magic_29_0.cap_res_Y.t109 sky130_fd_pr__cap_mim_m3_1 l=2 w=2
X116 VDDA.t127 a_6540_22450.t13 bgr_11_0.1st_Vout_2.t3 VDDA.t126 sky130_fd_pr__pfet_01v8 ad=0.2 pd=1.4 as=0.2 ps=1.4 w=1 l=0.2
X117 VDDA.t397 bgr_11_0.V_TOP.t21 two_stage_opamp_dummy_magic_29_0.V_err_amp_ref.t2 VDDA.t396 sky130_fd_pr__pfet_01v8 ad=0.6 pd=3.4 as=0.6 ps=3.4 w=3 l=0.5
X118 a_3230_3878.t0 two_stage_opamp_dummy_magic_29_0.V_CMFB_S3.t0 GNDA_2.t169 sky130_fd_pr__res_xhigh_po_0p35 l=1.75
X119 VOUT-.t37 two_stage_opamp_dummy_magic_29_0.cap_res_X.t124 sky130_fd_pr__cap_mim_m3_1 l=2 w=2
X120 two_stage_opamp_dummy_magic_29_0.VD2.t5 VIN+.t1 two_stage_opamp_dummy_magic_29_0.V_source.t36 GNDA_2.t183 sky130_fd_pr__nfet_01v8 ad=0.3 pd=1.9 as=0.3 ps=1.9 w=1.5 l=0.15
X121 VOUT-.t38 two_stage_opamp_dummy_magic_29_0.cap_res_X.t123 sky130_fd_pr__cap_mim_m3_1 l=2 w=2
X122 VOUT-.t8 two_stage_opamp_dummy_magic_29_0.V_b_2nd_stage.t3 GNDA_2.t283 GNDA_2.t282 sky130_fd_pr__nfet_01v8 ad=1.4 pd=7.4 as=1.4 ps=7.4 w=7 l=0.6
X123 two_stage_opamp_dummy_magic_29_0.V_source.t25 two_stage_opamp_dummy_magic_29_0.V_tail_gate.t15 GNDA_2.t239 GNDA_2.t238 sky130_fd_pr__nfet_01v8 ad=0.5 pd=2.9 as=0.5 ps=2.9 w=2.5 l=0.15
X124 VOUT-.t39 two_stage_opamp_dummy_magic_29_0.cap_res_X.t122 sky130_fd_pr__cap_mim_m3_1 l=2 w=2
X125 VOUT+.t54 two_stage_opamp_dummy_magic_29_0.cap_res_Y.t108 sky130_fd_pr__cap_mim_m3_1 l=2 w=2
X126 two_stage_opamp_dummy_magic_29_0.Vb2_2.t5 two_stage_opamp_dummy_magic_29_0.Vb2_2.t3 two_stage_opamp_dummy_magic_29_0.Vb2_2.t5 two_stage_opamp_dummy_magic_29_0.Vb2_2.t4 sky130_fd_pr__pfet_01v8 ad=0.7 pd=3.9 as=0 ps=0 w=3.5 l=0.2
X127 VOUT-.t40 two_stage_opamp_dummy_magic_29_0.cap_res_X.t121 sky130_fd_pr__cap_mim_m3_1 l=2 w=2
X128 VOUT+.t55 two_stage_opamp_dummy_magic_29_0.cap_res_Y.t107 sky130_fd_pr__cap_mim_m3_1 l=2 w=2
X129 bgr_11_0.1st_Vout_2.t12 bgr_11_0.cap_res2.t17 sky130_fd_pr__cap_mim_m3_1 l=2 w=2
X130 VOUT-.t41 two_stage_opamp_dummy_magic_29_0.cap_res_X.t120 sky130_fd_pr__cap_mim_m3_1 l=2 w=2
X131 VDDA.t124 two_stage_opamp_dummy_magic_29_0.Y.t32 VOUT+.t6 VDDA.t123 sky130_fd_pr__pfet_01v8 ad=1.2 pd=6.4 as=1.2 ps=6.4 w=6 l=0.15
X132 VOUT+.t56 two_stage_opamp_dummy_magic_29_0.cap_res_Y.t106 sky130_fd_pr__cap_mim_m3_1 l=2 w=2
X133 bgr_11_0.V_TOP.t22 VDDA.t379 sky130_fd_pr__cap_mim_m3_1 l=2 w=2
X134 VOUT-.t42 two_stage_opamp_dummy_magic_29_0.cap_res_X.t119 sky130_fd_pr__cap_mim_m3_1 l=2 w=2
X135 two_stage_opamp_dummy_magic_29_0.err_amp_out.t3 two_stage_opamp_dummy_magic_29_0.err_amp_mir.t5 GNDA_2.t187 GNDA_2.t52 sky130_fd_pr__nfet_01v8 ad=0.5 pd=2.9 as=0.5 ps=2.9 w=2.5 l=0.15
X136 VOUT+.t57 two_stage_opamp_dummy_magic_29_0.cap_res_Y.t105 sky130_fd_pr__cap_mim_m3_1 l=2 w=2
X137 two_stage_opamp_dummy_magic_29_0.V_err_amp_ref.t6 VDDA.t355 VDDA.t357 VDDA.t356 sky130_fd_pr__pfet_01v8 ad=0.6 pd=3.4 as=1.2 ps=6.8 w=3 l=0.5
X138 GNDA_2.t210 two_stage_opamp_dummy_magic_29_0.Y.t33 two_stage_opamp_dummy_magic_29_0.V_CMFB_S3.t14 VDDA.t112 sky130_fd_pr__pfet_01v8 ad=0.4 pd=2.4 as=0.4 ps=2.4 w=2 l=0.15
X139 two_stage_opamp_dummy_magic_29_0.VD4.t37 two_stage_opamp_dummy_magic_29_0.VD4.t35 two_stage_opamp_dummy_magic_29_0.Y.t24 two_stage_opamp_dummy_magic_29_0.VD4.t36 sky130_fd_pr__pfet_01v8 ad=1.4 pd=7.8 as=0.7 ps=3.9 w=3.5 l=0.2
X140 VOUT-.t43 two_stage_opamp_dummy_magic_29_0.cap_res_X.t118 sky130_fd_pr__cap_mim_m3_1 l=2 w=2
X141 two_stage_opamp_dummy_magic_29_0.V_CMFB_S1.t8 two_stage_opamp_dummy_magic_29_0.X.t31 GNDA_2.t33 VDDA.t32 sky130_fd_pr__pfet_01v8 ad=0.4 pd=2.4 as=0.4 ps=2.4 w=2 l=0.15
X142 VOUT+.t4 two_stage_opamp_dummy_magic_29_0.V_b_2nd_stage.t4 GNDA_2.t186 GNDA_2.t185 sky130_fd_pr__nfet_01v8 ad=1.4 pd=7.4 as=1.4 ps=7.4 w=7 l=0.6
X143 GNDA_2.t222 bgr_11_0.NFET_GATE_10uA.t8 two_stage_opamp_dummy_magic_29_0.Vb3.t5 GNDA_2.t221 sky130_fd_pr__nfet_01v8 ad=0.2 pd=1.4 as=0.2 ps=1.4 w=1 l=0.15
X144 two_stage_opamp_dummy_magic_29_0.VD1.t19 two_stage_opamp_dummy_magic_29_0.Vb1.t14 two_stage_opamp_dummy_magic_29_0.X.t11 GNDA_2.t235 sky130_fd_pr__nfet_01v8 ad=0.3 pd=1.9 as=0.3 ps=1.9 w=1.5 l=0.15
X145 VDDA.t78 a_6540_22450.t9 a_6540_22450.t10 VDDA.t77 sky130_fd_pr__pfet_01v8 ad=0.2 pd=1.4 as=0.2 ps=1.4 w=1 l=0.2
X146 VOUT-.t44 two_stage_opamp_dummy_magic_29_0.cap_res_X.t117 sky130_fd_pr__cap_mim_m3_1 l=2 w=2
X147 GNDA_2.t212 two_stage_opamp_dummy_magic_29_0.V_tail_gate.t16 two_stage_opamp_dummy_magic_29_0.V_source.t21 GNDA_2.t6 sky130_fd_pr__nfet_01v8 ad=0.5 pd=2.9 as=0.5 ps=2.9 w=2.5 l=0.15
X148 bgr_11_0.START_UP.t3 bgr_11_0.V_TOP.t23 VDDA.t381 VDDA.t380 sky130_fd_pr__pfet_01v8 ad=0.6 pd=3.4 as=0.6 ps=3.4 w=3 l=0.5
X149 VOUT+.t58 two_stage_opamp_dummy_magic_29_0.cap_res_Y.t104 sky130_fd_pr__cap_mim_m3_1 l=2 w=2
X150 VDDA.t354 VDDA.t352 two_stage_opamp_dummy_magic_29_0.VD4.t11 VDDA.t353 sky130_fd_pr__pfet_01v8 ad=1.4 pd=7.8 as=0.7 ps=3.9 w=3.5 l=0.2
X151 two_stage_opamp_dummy_magic_29_0.X.t16 two_stage_opamp_dummy_magic_29_0.Vb2.t14 two_stage_opamp_dummy_magic_29_0.VD3.t32 two_stage_opamp_dummy_magic_29_0.VD3.t31 sky130_fd_pr__pfet_01v8 ad=0.7 pd=3.9 as=0.7 ps=3.9 w=3.5 l=0.2
X152 VOUT-.t45 two_stage_opamp_dummy_magic_29_0.cap_res_X.t116 sky130_fd_pr__cap_mim_m3_1 l=2 w=2
X153 a_11420_30238.t1 bgr_11_0.Vin-.t5 GNDA_2.t196 sky130_fd_pr__res_xhigh_po_0p35 l=6
X154 bgr_11_0.V_TOP.t12 VDDA.t349 VDDA.t351 VDDA.t350 sky130_fd_pr__pfet_01v8 ad=0.2 pd=1.4 as=0.45 ps=2.9 w=1 l=0.15
X155 VOUT-.t46 two_stage_opamp_dummy_magic_29_0.cap_res_X.t115 sky130_fd_pr__cap_mim_m3_1 l=2 w=2
X156 VOUT-.t47 two_stage_opamp_dummy_magic_29_0.cap_res_X.t114 sky130_fd_pr__cap_mim_m3_1 l=2 w=2
X157 GNDA_2.t191 two_stage_opamp_dummy_magic_29_0.V_b_2nd_stage.t5 VOUT-.t7 GNDA_2.t190 sky130_fd_pr__nfet_01v8 ad=1.4 pd=7.4 as=1.4 ps=7.4 w=7 l=0.6
X158 GNDA_2.t195 a_11950_28880.t0 GNDA_2.t194 sky130_fd_pr__res_xhigh_po_0p35 l=4
X159 VOUT+.t59 two_stage_opamp_dummy_magic_29_0.cap_res_Y.t103 sky130_fd_pr__cap_mim_m3_1 l=2 w=2
X160 two_stage_opamp_dummy_magic_29_0.VD2.t13 two_stage_opamp_dummy_magic_29_0.Vb1.t15 two_stage_opamp_dummy_magic_29_0.Y.t5 GNDA_2.t50 sky130_fd_pr__nfet_01v8 ad=0.3 pd=1.9 as=0.3 ps=1.9 w=1.5 l=0.15
X161 bgr_11_0.V_TOP.t24 VDDA.t101 sky130_fd_pr__cap_mim_m3_1 l=2 w=2
X162 VOUT+.t16 two_stage_opamp_dummy_magic_29_0.Y.t34 VDDA.t392 VDDA.t391 sky130_fd_pr__pfet_01v8 ad=1.2 pd=6.4 as=1.2 ps=6.4 w=6 l=0.15
X163 two_stage_opamp_dummy_magic_29_0.err_amp_out.t0 two_stage_opamp_dummy_magic_29_0.V_err_amp_ref.t7 two_stage_opamp_dummy_magic_29_0.V_err_p.t0 VDDA.t378 sky130_fd_pr__pfet_01v8 ad=0.5 pd=2.9 as=0.5 ps=2.9 w=2.5 l=0.15
X164 two_stage_opamp_dummy_magic_29_0.VD1.t18 two_stage_opamp_dummy_magic_29_0.Vb1.t16 two_stage_opamp_dummy_magic_29_0.X.t4 GNDA_2.t61 sky130_fd_pr__nfet_01v8 ad=0.3 pd=1.9 as=0.3 ps=1.9 w=1.5 l=0.15
X165 bgr_11_0.Vin+.t3 bgr_11_0.V_TOP.t25 VDDA.t103 VDDA.t102 sky130_fd_pr__pfet_01v8 ad=0.6 pd=3.4 as=0.6 ps=3.4 w=3 l=0.5
X166 two_stage_opamp_dummy_magic_29_0.VD3.t9 two_stage_opamp_dummy_magic_29_0.Vb3.t10 VDDA.t84 VDDA.t83 sky130_fd_pr__pfet_01v8 ad=0.7 pd=3.9 as=0.7 ps=3.9 w=3.5 l=0.2
X167 VDDA.t130 two_stage_opamp_dummy_magic_29_0.X.t32 VOUT-.t11 VDDA.t129 sky130_fd_pr__pfet_01v8 ad=1.2 pd=6.4 as=1.2 ps=6.4 w=6 l=0.15
X168 VOUT-.t48 two_stage_opamp_dummy_magic_29_0.cap_res_X.t113 sky130_fd_pr__cap_mim_m3_1 l=2 w=2
X169 VDDA.t191 bgr_11_0.V_mir1.t14 bgr_11_0.1st_Vout_1.t6 VDDA.t190 sky130_fd_pr__pfet_01v8 ad=0.2 pd=1.4 as=0.2 ps=1.4 w=1 l=0.2
X170 two_stage_opamp_dummy_magic_29_0.VD1.t0 VIN-.t0 two_stage_opamp_dummy_magic_29_0.V_source.t3 GNDA_2.t15 sky130_fd_pr__nfet_01v8 ad=0.3 pd=1.9 as=0.3 ps=1.9 w=1.5 l=0.15
X171 VOUT+.t60 two_stage_opamp_dummy_magic_29_0.cap_res_Y.t102 sky130_fd_pr__cap_mim_m3_1 l=2 w=2
X172 bgr_11_0.1st_Vout_2.t13 bgr_11_0.cap_res2.t16 sky130_fd_pr__cap_mim_m3_1 l=2 w=2
X173 VDDA_2.t6 VDDA_2.t3 VDDA_2.t5 VDDA_2.t4 sky130_fd_pr__pfet_01v8 ad=0.8 pd=4.8 as=0 ps=0 w=2 l=0.15
X174 VDDA.t348 VDDA.t345 VDDA.t347 VDDA.t346 sky130_fd_pr__pfet_01v8 ad=0.4 pd=2.8 as=0 ps=0 w=1 l=0.15
X175 VDDA.t245 bgr_11_0.PFET_GATE_10uA.t14 two_stage_opamp_dummy_magic_29_0.V_tail_gate.t10 VDDA.t244 sky130_fd_pr__pfet_01v8 ad=0.2 pd=1.4 as=0.2 ps=1.4 w=1 l=0.15
X176 two_stage_opamp_dummy_magic_29_0.VD2.t3 GNDA_2.t155 GNDA_2.t156 GNDA_2.t96 sky130_fd_pr__nfet_01v8 ad=0.3 pd=1.9 as=0.6 ps=3.8 w=1.5 l=0.15
X177 VOUT-.t49 two_stage_opamp_dummy_magic_29_0.cap_res_X.t112 sky130_fd_pr__cap_mim_m3_1 l=2 w=2
X178 VOUT-.t50 two_stage_opamp_dummy_magic_29_0.cap_res_X.t111 sky130_fd_pr__cap_mim_m3_1 l=2 w=2
X179 VOUT-.t51 two_stage_opamp_dummy_magic_29_0.cap_res_X.t110 sky130_fd_pr__cap_mim_m3_1 l=2 w=2
X180 VOUT+.t61 two_stage_opamp_dummy_magic_29_0.cap_res_Y.t101 sky130_fd_pr__cap_mim_m3_1 l=2 w=2
X181 two_stage_opamp_dummy_magic_29_0.X.t20 two_stage_opamp_dummy_magic_29_0.Vb2.t15 two_stage_opamp_dummy_magic_29_0.VD3.t30 two_stage_opamp_dummy_magic_29_0.VD3.t29 sky130_fd_pr__pfet_01v8 ad=0.7 pd=3.9 as=0.7 ps=3.9 w=3.5 l=0.2
X182 VOUT+.t62 two_stage_opamp_dummy_magic_29_0.cap_res_Y.t100 sky130_fd_pr__cap_mim_m3_1 l=2 w=2
X183 VOUT+.t63 two_stage_opamp_dummy_magic_29_0.cap_res_Y.t99 sky130_fd_pr__cap_mim_m3_1 l=2 w=2
X184 two_stage_opamp_dummy_magic_29_0.V_CMFB_S4.t4 bgr_11_0.NFET_GATE_10uA.t9 GNDA_2.t56 GNDA_2.t55 sky130_fd_pr__nfet_01v8 ad=0.2 pd=1.4 as=0.2 ps=1.4 w=1 l=0.15
X185 GNDA_2.t154 GNDA_2.t153 two_stage_opamp_dummy_magic_29_0.V_tail_gate.t2 GNDA_2.t24 sky130_fd_pr__nfet_01v8 ad=0.6 pd=3.8 as=0.3 ps=1.9 w=1.5 l=0.15
X186 two_stage_opamp_dummy_magic_29_0.VD1.t1 VIN-.t1 two_stage_opamp_dummy_magic_29_0.V_source.t4 GNDA_2.t24 sky130_fd_pr__nfet_01v8 ad=0.3 pd=1.9 as=0.3 ps=1.9 w=1.5 l=0.15
X187 VOUT-.t52 two_stage_opamp_dummy_magic_29_0.cap_res_X.t109 sky130_fd_pr__cap_mim_m3_1 l=2 w=2
X188 VOUT-.t53 two_stage_opamp_dummy_magic_29_0.cap_res_X.t108 sky130_fd_pr__cap_mim_m3_1 l=2 w=2
X189 two_stage_opamp_dummy_magic_29_0.Vb2.t6 bgr_11_0.NFET_GATE_10uA.t10 GNDA_2.t242 GNDA_2.t241 sky130_fd_pr__nfet_01v8 ad=0.2 pd=1.4 as=0.2 ps=1.4 w=1 l=0.15
X190 VDDA.t406 bgr_11_0.V_TOP.t26 bgr_11_0.Vin-.t3 VDDA.t405 sky130_fd_pr__pfet_01v8 ad=0.6 pd=3.4 as=0.6 ps=3.4 w=3 l=0.5
X191 VDDA.t344 VDDA.t342 bgr_11_0.V_TOP.t11 VDDA.t343 sky130_fd_pr__pfet_01v8 ad=0.4 pd=2.8 as=0.2 ps=1.4 w=1 l=0.2
X192 VOUT+.t64 two_stage_opamp_dummy_magic_29_0.cap_res_Y.t98 sky130_fd_pr__cap_mim_m3_1 l=2 w=2
X193 GNDA_2.t73 GNDA_2.t72 bgr_11_0.sky130_fd_pr__rf_pnp_05v5_W3p40L3p40_25.Emitter.t6 sky130_fd_pr__pnp_05v5_W3p40L3p40
**devattr s=462400,2720
X194 VOUT+.t65 two_stage_opamp_dummy_magic_29_0.cap_res_Y.t97 sky130_fd_pr__cap_mim_m3_1 l=2 w=2
X195 bgr_11_0.1st_Vout_1.t9 bgr_11_0.cap_res1.t17 sky130_fd_pr__cap_mim_m3_1 l=2 w=2
X196 GNDA_2.t76 GNDA_2.t75 bgr_11_0.sky130_fd_pr__rf_pnp_05v5_W3p40L3p40_25.Emitter.t5 sky130_fd_pr__pnp_05v5_W3p40L3p40
**devattr s=462400,2720
X197 VDDA.t69 bgr_11_0.1st_Vout_1.t10 bgr_11_0.V_TOP.t3 VDDA.t68 sky130_fd_pr__pfet_01v8 ad=0.2 pd=1.4 as=0.2 ps=1.4 w=1 l=0.2
X198 bgr_11_0.START_UP.t5 bgr_11_0.START_UP.t4 bgr_11_0.START_UP_NFET1.t0 GNDA_2.t29 sky130_fd_pr__nfet_01v8 ad=0.4 pd=2.8 as=0.2 ps=1.4 w=1 l=10
X199 VDDA.t136 two_stage_opamp_dummy_magic_29_0.Y.t35 two_stage_opamp_dummy_magic_29_0.V_CMFB_S4.t12 GNDA_2.t225 sky130_fd_pr__nfet_01v8 ad=0.6 pd=3.4 as=0.6 ps=3.4 w=3 l=0.15
X200 VOUT-.t54 two_stage_opamp_dummy_magic_29_0.cap_res_X.t107 sky130_fd_pr__cap_mim_m3_1 l=2 w=2
X201 VOUT-.t55 two_stage_opamp_dummy_magic_29_0.cap_res_X.t106 sky130_fd_pr__cap_mim_m3_1 l=2 w=2
X202 VOUT+.t66 two_stage_opamp_dummy_magic_29_0.cap_res_Y.t96 sky130_fd_pr__cap_mim_m3_1 l=2 w=2
X203 VOUT+.t67 two_stage_opamp_dummy_magic_29_0.cap_res_Y.t95 sky130_fd_pr__cap_mim_m3_1 l=2 w=2
X204 two_stage_opamp_dummy_magic_29_0.VD1.t17 two_stage_opamp_dummy_magic_29_0.Vb1.t17 two_stage_opamp_dummy_magic_29_0.X.t24 GNDA_2.t164 sky130_fd_pr__nfet_01v8 ad=0.3 pd=1.9 as=0.3 ps=1.9 w=1.5 l=0.15
X205 VOUT-.t56 two_stage_opamp_dummy_magic_29_0.cap_res_X.t105 sky130_fd_pr__cap_mim_m3_1 l=2 w=2
X206 VOUT+.t68 two_stage_opamp_dummy_magic_29_0.cap_res_Y.t94 sky130_fd_pr__cap_mim_m3_1 l=2 w=2
X207 GNDA_2.t32 two_stage_opamp_dummy_magic_29_0.V_tail_gate.t17 two_stage_opamp_dummy_magic_29_0.V_source.t5 GNDA_2.t6 sky130_fd_pr__nfet_01v8 ad=0.5 pd=2.9 as=0.5 ps=2.9 w=2.5 l=0.15
X208 bgr_11_0.NFET_GATE_10uA.t2 bgr_11_0.NFET_GATE_10uA.t1 GNDA_2.t38 GNDA_2.t37 sky130_fd_pr__nfet_01v8 ad=0.2 pd=1.4 as=0.2 ps=1.4 w=1 l=0.15
X209 VDDA.t408 bgr_11_0.V_TOP.t27 bgr_11_0.Vin+.t2 VDDA.t407 sky130_fd_pr__pfet_01v8 ad=0.6 pd=3.4 as=0.6 ps=3.4 w=3 l=0.5
X210 VOUT-.t57 two_stage_opamp_dummy_magic_29_0.cap_res_X.t104 sky130_fd_pr__cap_mim_m3_1 l=2 w=2
X211 bgr_11_0.1st_Vout_1.t11 bgr_11_0.cap_res1.t16 sky130_fd_pr__cap_mim_m3_1 l=2 w=2
X212 VOUT+.t69 two_stage_opamp_dummy_magic_29_0.cap_res_Y.t93 sky130_fd_pr__cap_mim_m3_1 l=2 w=2
X213 two_stage_opamp_dummy_magic_29_0.V_err_mir_p.t0 two_stage_opamp_dummy_magic_29_0.V_err_amp_ref.t8 two_stage_opamp_dummy_magic_29_0.V_err_gate.t0 VDDA.t72 sky130_fd_pr__pfet_01v8 ad=0.5 pd=2.9 as=0.5 ps=2.9 w=2.5 l=0.15
X214 two_stage_opamp_dummy_magic_29_0.VD2.t12 two_stage_opamp_dummy_magic_29_0.Vb1.t18 two_stage_opamp_dummy_magic_29_0.Y.t10 GNDA_2.t3 sky130_fd_pr__nfet_01v8 ad=0.3 pd=1.9 as=0.3 ps=1.9 w=1.5 l=0.15
X215 bgr_11_0.V_TOP.t28 VDDA.t382 sky130_fd_pr__cap_mim_m3_1 l=2 w=2
X216 VDDA.t59 two_stage_opamp_dummy_magic_29_0.V_err_gate.t6 two_stage_opamp_dummy_magic_29_0.V_err_p.t3 VDDA.t58 sky130_fd_pr__pfet_01v8 ad=0.5 pd=2.9 as=0.5 ps=2.9 w=2.5 l=0.15
X217 two_stage_opamp_dummy_magic_29_0.VD1.t16 two_stage_opamp_dummy_magic_29_0.Vb1.t19 two_stage_opamp_dummy_magic_29_0.X.t1 GNDA_2.t3 sky130_fd_pr__nfet_01v8 ad=0.3 pd=1.9 as=0.3 ps=1.9 w=1.5 l=0.15
X218 GNDA_2.t73 GNDA_2.t152 bgr_11_0.sky130_fd_pr__rf_pnp_05v5_W3p40L3p40_25.Emitter.t4 sky130_fd_pr__pnp_05v5_W3p40L3p40
**devattr s=462400,2720
X219 GNDA_2.t151 GNDA_2.t149 GNDA_2.t151 GNDA_2.t150 sky130_fd_pr__nfet_01v8 ad=0.5 pd=2.9 as=0 ps=0 w=2.5 l=0.15
X220 VDDA.t40 bgr_11_0.V_mir1.t9 bgr_11_0.V_mir1.t10 VDDA.t39 sky130_fd_pr__pfet_01v8 ad=0.2 pd=1.4 as=0.2 ps=1.4 w=1 l=0.2
X221 VOUT-.t58 two_stage_opamp_dummy_magic_29_0.cap_res_X.t103 sky130_fd_pr__cap_mim_m3_1 l=2 w=2
X222 GNDA_2.t148 GNDA_2.t145 GNDA_2.t147 GNDA_2.t146 sky130_fd_pr__nfet_01v8 ad=0.4 pd=2.8 as=0 ps=0 w=1 l=0.15
X223 VDDA.t341 VDDA.t339 bgr_11_0.NFET_GATE_10uA.t4 VDDA.t340 sky130_fd_pr__pfet_01v8 ad=0.4 pd=2.8 as=0.2 ps=1.4 w=1 l=0.15
X224 two_stage_opamp_dummy_magic_29_0.Vb2_Vb3.t7 two_stage_opamp_dummy_magic_29_0.Vb2_Vb3.t4 two_stage_opamp_dummy_magic_29_0.Vb2_Vb3.t6 two_stage_opamp_dummy_magic_29_0.Vb2_Vb3.t5 sky130_fd_pr__pfet_01v8 ad=1.4 pd=7.8 as=0 ps=0 w=3.5 l=0.2
X225 VOUT-.t59 two_stage_opamp_dummy_magic_29_0.cap_res_X.t102 sky130_fd_pr__cap_mim_m3_1 l=2 w=2
X226 bgr_11_0.1st_Vout_1.t12 bgr_11_0.cap_res1.t15 sky130_fd_pr__cap_mim_m3_1 l=2 w=2
X227 a_3110_3878.t0 two_stage_opamp_dummy_magic_29_0.V_CMFB_S4.t1 GNDA_2.t168 sky130_fd_pr__res_xhigh_po_0p35 l=1.75
X228 VOUT+.t70 two_stage_opamp_dummy_magic_29_0.cap_res_Y.t92 sky130_fd_pr__cap_mim_m3_1 l=2 w=2
X229 two_stage_opamp_dummy_magic_29_0.VD1.t4 VIN-.t2 two_stage_opamp_dummy_magic_29_0.V_source.t10 GNDA_2.t41 sky130_fd_pr__nfet_01v8 ad=0.3 pd=1.9 as=0.3 ps=1.9 w=1.5 l=0.15
X230 VOUT-.t60 two_stage_opamp_dummy_magic_29_0.cap_res_X.t101 sky130_fd_pr__cap_mim_m3_1 l=2 w=2
X231 VOUT+.t71 two_stage_opamp_dummy_magic_29_0.cap_res_Y.t91 sky130_fd_pr__cap_mim_m3_1 l=2 w=2
X232 VDDA.t155 bgr_11_0.1st_Vout_1.t13 bgr_11_0.V_TOP.t6 VDDA.t154 sky130_fd_pr__pfet_01v8 ad=0.2 pd=1.4 as=0.2 ps=1.4 w=1 l=0.2
X233 VOUT-.t61 two_stage_opamp_dummy_magic_29_0.cap_res_X.t100 sky130_fd_pr__cap_mim_m3_1 l=2 w=2