* PEX produced on Wed Jul  2 09:21:48 PM CEST 2025 using /foss/tools/osic-multitool/iic-pex.sh with m=3 and s=1
* NGSPICE file created from bgr_opamp_dummy_magic.ext - technology: sky130A

.subckt bgr_opamp_dummy_magic VDDA GNDA
X0 a_14640_5738.t1 two_stage_opamp_dummy_magic_0.V_CMFB_S3.t14 GNDA.t323 sky130_fd_pr__res_xhigh_po_0p35 l=1.75
X1 two_stage_opamp_dummy_magic_0.VD2.t14 GNDA.t217 GNDA.t219 GNDA.t218 sky130_fd_pr__nfet_01v8 ad=0.3 pd=1.9 as=0.6 ps=3.8 w=1.5 l=0.15
X2 two_stage_opamp_dummy_magic_0.VOUT-.t19 two_stage_opamp_dummy_magic_0.cap_res_X.t138 sky130_fd_pr__cap_mim_m3_1 l=2 w=2
X3 two_stage_opamp_dummy_magic_0.V_tail_gate.t11 bgr_0.PFET_GATE_10uA.t10 VDDA.t417 VDDA.t416 sky130_fd_pr__pfet_01v8 ad=0.2 pd=1.4 as=0.2 ps=1.4 w=1 l=0.15
X4 bgr_0.V_mir2.t16 two_stage_opamp_dummy_magic_0.V_err_amp_ref.t7 bgr_0.V_p_2.t4 GNDA.t49 sky130_fd_pr__nfet_01v8 ad=0.1 pd=0.9 as=0.1 ps=0.9 w=0.5 l=0.2
X5 two_stage_opamp_dummy_magic_0.VOUT-.t20 two_stage_opamp_dummy_magic_0.cap_res_X.t137 sky130_fd_pr__cap_mim_m3_1 l=2 w=2
X6 two_stage_opamp_dummy_magic_0.VOUT-.t21 two_stage_opamp_dummy_magic_0.cap_res_X.t136 sky130_fd_pr__cap_mim_m3_1 l=2 w=2
X7 two_stage_opamp_dummy_magic_0.Vb1.t5 bgr_0.PFET_GATE_10uA.t11 VDDA.t415 VDDA.t414 sky130_fd_pr__pfet_01v8 ad=0.2 pd=1.4 as=0.2 ps=1.4 w=1 l=0.15
X8 two_stage_opamp_dummy_magic_0.VOUT-.t22 two_stage_opamp_dummy_magic_0.cap_res_X.t135 sky130_fd_pr__cap_mim_m3_1 l=2 w=2
X9 bgr_0.1st_Vout_2.t11 bgr_0.cap_res2.t20 sky130_fd_pr__cap_mim_m3_1 l=2 w=2
X10 two_stage_opamp_dummy_magic_0.V_err_gate.t10 two_stage_opamp_dummy_magic_0.V_err_amp_ref.t8 two_stage_opamp_dummy_magic_0.V_err_mir_p.t16 VDDA.t215 sky130_fd_pr__pfet_01v8 ad=0.1 pd=0.9 as=0.1 ps=0.9 w=0.5 l=0.15
X11 two_stage_opamp_dummy_magic_0.VOUT-.t23 two_stage_opamp_dummy_magic_0.cap_res_X.t134 sky130_fd_pr__cap_mim_m3_1 l=2 w=2
X12 VDDA.t117 VDDA.t115 bgr_0.PFET_GATE_10uA.t6 VDDA.t116 sky130_fd_pr__pfet_01v8 ad=0.4 pd=2.8 as=0.2 ps=1.4 w=1 l=0.2
X13 GNDA.t48 two_stage_opamp_dummy_magic_0.X.t25 two_stage_opamp_dummy_magic_0.V_CMFB_S1.t11 VDDA.t170 sky130_fd_pr__pfet_01v8 ad=0.4 pd=2.4 as=0.4 ps=2.4 w=2 l=0.15
X14 two_stage_opamp_dummy_magic_0.X.t6 GNDA.t214 GNDA.t216 GNDA.t215 sky130_fd_pr__nfet_01v8 ad=0.3 pd=1.9 as=0.6 ps=3.8 w=1.5 l=0.15
X15 VDDA.t273 bgr_0.1st_Vout_1.t11 bgr_0.V_TOP.t10 VDDA.t272 sky130_fd_pr__pfet_01v8 ad=0.2 pd=1.4 as=0.2 ps=1.4 w=1 l=0.2
X16 two_stage_opamp_dummy_magic_0.VOUT-.t24 two_stage_opamp_dummy_magic_0.cap_res_X.t133 sky130_fd_pr__cap_mim_m3_1 l=2 w=2
X17 two_stage_opamp_dummy_magic_0.VOUT-.t25 two_stage_opamp_dummy_magic_0.cap_res_X.t132 sky130_fd_pr__cap_mim_m3_1 l=2 w=2
X18 two_stage_opamp_dummy_magic_0.VOUT-.t26 two_stage_opamp_dummy_magic_0.cap_res_X.t131 sky130_fd_pr__cap_mim_m3_1 l=2 w=2
X19 VDDA.t127 two_stage_opamp_dummy_magic_0.X.t26 two_stage_opamp_dummy_magic_0.VOUT-.t2 VDDA.t126 sky130_fd_pr__pfet_01v8 ad=1.2 pd=6.4 as=1.2 ps=6.4 w=6 l=0.15
X20 two_stage_opamp_dummy_magic_0.V_CMFB_S4.t14 two_stage_opamp_dummy_magic_0.Y.t25 VDDA.t278 GNDA.t259 sky130_fd_pr__nfet_01v8 ad=0.6 pd=3.4 as=0.6 ps=3.4 w=3 l=0.15
X21 bgr_0.PFET_GATE_10uA.t7 bgr_0.1st_Vout_2.t12 VDDA.t438 VDDA.t437 sky130_fd_pr__pfet_01v8 ad=0.2 pd=1.4 as=0.2 ps=1.4 w=1 l=0.2
X22 two_stage_opamp_dummy_magic_0.V_CMFB_S1.t16 bgr_0.PFET_GATE_10uA.t12 VDDA.t413 VDDA.t412 sky130_fd_pr__pfet_01v8 ad=0.2 pd=1.4 as=0.2 ps=1.4 w=1 l=0.15
X23 two_stage_opamp_dummy_magic_0.VOUT+.t19 two_stage_opamp_dummy_magic_0.cap_res_Y.t138 sky130_fd_pr__cap_mim_m3_1 l=2 w=2
X24 two_stage_opamp_dummy_magic_0.V_b_2nd_stage.t1 a_5750_2946.t0 GNDA.t258 sky130_fd_pr__res_xhigh_po_0p35 l=2.63
X25 two_stage_opamp_dummy_magic_0.VOUT+.t20 two_stage_opamp_dummy_magic_0.cap_res_Y.t137 sky130_fd_pr__cap_mim_m3_1 l=2 w=2
X26 bgr_0.V_TOP.t14 VDDA.t298 sky130_fd_pr__cap_mim_m3_1 l=2 w=2
X27 two_stage_opamp_dummy_magic_0.VOUT+.t21 two_stage_opamp_dummy_magic_0.cap_res_Y.t136 sky130_fd_pr__cap_mim_m3_1 l=2 w=2
X28 two_stage_opamp_dummy_magic_0.VOUT-.t27 two_stage_opamp_dummy_magic_0.cap_res_X.t130 sky130_fd_pr__cap_mim_m3_1 l=2 w=2
X29 VDDA.t319 two_stage_opamp_dummy_magic_0.V_err_gate.t14 two_stage_opamp_dummy_magic_0.V_err_mir_p.t6 VDDA.t318 sky130_fd_pr__pfet_01v8 ad=0.1 pd=0.9 as=0.1 ps=0.9 w=0.5 l=0.15
X30 two_stage_opamp_dummy_magic_0.VD3.t8 two_stage_opamp_dummy_magic_0.VD3.t6 two_stage_opamp_dummy_magic_0.X.t7 two_stage_opamp_dummy_magic_0.VD3.t7 sky130_fd_pr__pfet_01v8 ad=1.4 pd=7.8 as=0.7 ps=3.9 w=3.5 l=0.2
X31 two_stage_opamp_dummy_magic_0.VOUT-.t28 two_stage_opamp_dummy_magic_0.cap_res_X.t129 sky130_fd_pr__cap_mim_m3_1 l=2 w=2
X32 two_stage_opamp_dummy_magic_0.VOUT-.t29 two_stage_opamp_dummy_magic_0.cap_res_X.t128 sky130_fd_pr__cap_mim_m3_1 l=2 w=2
X33 two_stage_opamp_dummy_magic_0.VOUT+.t22 two_stage_opamp_dummy_magic_0.cap_res_Y.t135 sky130_fd_pr__cap_mim_m3_1 l=2 w=2
X34 GNDA.t295 two_stage_opamp_dummy_magic_0.err_amp_mir.t10 two_stage_opamp_dummy_magic_0.err_amp_mir.t11 GNDA.t132 sky130_fd_pr__nfet_01v8 ad=0.1 pd=0.9 as=0.1 ps=0.9 w=0.5 l=0.15
X35 two_stage_opamp_dummy_magic_0.VOUT-.t30 two_stage_opamp_dummy_magic_0.cap_res_X.t127 sky130_fd_pr__cap_mim_m3_1 l=2 w=2
X36 bgr_0.START_UP.t3 bgr_0.V_TOP.t15 VDDA.t300 VDDA.t299 sky130_fd_pr__pfet_01v8 ad=0.6 pd=3.4 as=0.6 ps=3.4 w=3 l=0.5
X37 VDDA.t172 two_stage_opamp_dummy_magic_0.Vb3.t8 two_stage_opamp_dummy_magic_0.VD3.t15 VDDA.t171 sky130_fd_pr__pfet_01v8 ad=0.7 pd=3.9 as=0.7 ps=3.9 w=3.5 l=0.2
X38 bgr_0.V_TOP.t16 VDDA.t256 sky130_fd_pr__cap_mim_m3_1 l=2 w=2
X39 VDDA.t114 VDDA.t112 two_stage_opamp_dummy_magic_0.V_err_gate.t1 VDDA.t113 sky130_fd_pr__pfet_01v8 ad=0.2 pd=1.8 as=0.1 ps=0.9 w=0.5 l=0.15
X40 two_stage_opamp_dummy_magic_0.VOUT-.t31 two_stage_opamp_dummy_magic_0.cap_res_X.t126 sky130_fd_pr__cap_mim_m3_1 l=2 w=2
X41 two_stage_opamp_dummy_magic_0.VOUT+.t23 two_stage_opamp_dummy_magic_0.cap_res_Y.t134 sky130_fd_pr__cap_mim_m3_1 l=2 w=2
X42 bgr_0.1st_Vout_1.t12 bgr_0.cap_res1.t19 sky130_fd_pr__cap_mim_m3_1 l=2 w=2
X43 two_stage_opamp_dummy_magic_0.Y.t5 GNDA.t211 GNDA.t213 GNDA.t212 sky130_fd_pr__nfet_01v8 ad=0.3 pd=1.9 as=0.6 ps=3.8 w=1.5 l=0.15
X44 two_stage_opamp_dummy_magic_0.Y.t15 two_stage_opamp_dummy_magic_0.Vb1.t6 two_stage_opamp_dummy_magic_0.VD1.t21 GNDA.t59 sky130_fd_pr__nfet_01v8 ad=0.3 pd=1.9 as=0.3 ps=1.9 w=1.5 l=0.15
X45 two_stage_opamp_dummy_magic_0.VOUT+.t24 two_stage_opamp_dummy_magic_0.cap_res_Y.t133 sky130_fd_pr__cap_mim_m3_1 l=2 w=2
X46 two_stage_opamp_dummy_magic_0.VOUT+.t25 two_stage_opamp_dummy_magic_0.cap_res_Y.t132 sky130_fd_pr__cap_mim_m3_1 l=2 w=2
X47 two_stage_opamp_dummy_magic_0.V_err_p.t12 two_stage_opamp_dummy_magic_0.V_err_gate.t15 VDDA.t277 VDDA.t276 sky130_fd_pr__pfet_01v8 ad=0.1 pd=0.9 as=0.1 ps=0.9 w=0.5 l=0.15
X48 two_stage_opamp_dummy_magic_0.VOUT-.t3 two_stage_opamp_dummy_magic_0.X.t27 VDDA.t129 VDDA.t128 sky130_fd_pr__pfet_01v8 ad=1.2 pd=6.4 as=1.2 ps=6.4 w=6 l=0.15
X49 two_stage_opamp_dummy_magic_0.V_err_p.t14 two_stage_opamp_dummy_magic_0.V_tot.t4 two_stage_opamp_dummy_magic_0.err_amp_mir.t14 VDDA.t340 sky130_fd_pr__pfet_01v8 ad=0.1 pd=0.9 as=0.1 ps=0.9 w=0.5 l=0.15
X50 two_stage_opamp_dummy_magic_0.VOUT+.t26 two_stage_opamp_dummy_magic_0.cap_res_Y.t131 sky130_fd_pr__cap_mim_m3_1 l=2 w=2
X51 bgr_0.1st_Vout_2.t10 bgr_0.V_CUR_REF_REG.t3 bgr_0.V_p_2.t10 GNDA.t354 sky130_fd_pr__nfet_01v8 ad=0.1 pd=0.9 as=0.1 ps=0.9 w=0.5 l=0.2
X52 bgr_0.PFET_GATE_10uA.t8 bgr_0.1st_Vout_2.t13 VDDA.t440 VDDA.t439 sky130_fd_pr__pfet_01v8 ad=0.2 pd=1.4 as=0.2 ps=1.4 w=1 l=0.2
X53 two_stage_opamp_dummy_magic_0.VD1.t9 two_stage_opamp_dummy_magic_0.VIN- two_stage_opamp_dummy_magic_0.V_p.t37 GNDA.t111 sky130_fd_pr__nfet_01v8 ad=0.3 pd=1.9 as=0.3 ps=1.9 w=1.5 l=0.15
X54 two_stage_opamp_dummy_magic_0.VOUT+.t27 two_stage_opamp_dummy_magic_0.cap_res_Y.t130 sky130_fd_pr__cap_mim_m3_1 l=2 w=2
X55 two_stage_opamp_dummy_magic_0.VOUT-.t32 two_stage_opamp_dummy_magic_0.cap_res_X.t125 sky130_fd_pr__cap_mim_m3_1 l=2 w=2
X56 bgr_0.1st_Vout_1.t13 bgr_0.cap_res1.t18 sky130_fd_pr__cap_mim_m3_1 l=2 w=2
X57 two_stage_opamp_dummy_magic_0.VOUT+.t28 two_stage_opamp_dummy_magic_0.cap_res_Y.t129 sky130_fd_pr__cap_mim_m3_1 l=2 w=2
X58 two_stage_opamp_dummy_magic_0.V_err_p.t11 two_stage_opamp_dummy_magic_0.V_err_gate.t16 VDDA.t360 VDDA.t359 sky130_fd_pr__pfet_01v8 ad=0.1 pd=0.9 as=0.1 ps=0.9 w=0.5 l=0.15
X59 two_stage_opamp_dummy_magic_0.VOUT+.t29 two_stage_opamp_dummy_magic_0.cap_res_Y.t128 sky130_fd_pr__cap_mim_m3_1 l=2 w=2
X60 two_stage_opamp_dummy_magic_0.VOUT+.t30 two_stage_opamp_dummy_magic_0.cap_res_Y.t127 sky130_fd_pr__cap_mim_m3_1 l=2 w=2
X61 GNDA.t33 two_stage_opamp_dummy_magic_0.Y.t26 two_stage_opamp_dummy_magic_0.V_CMFB_S3.t2 VDDA.t146 sky130_fd_pr__pfet_01v8 ad=0.4 pd=2.4 as=0.4 ps=2.4 w=2 l=0.15
X62 two_stage_opamp_dummy_magic_0.VOUT-.t33 two_stage_opamp_dummy_magic_0.cap_res_X.t124 sky130_fd_pr__cap_mim_m3_1 l=2 w=2
X63 VDDA.t280 bgr_0.V_mir1.t17 bgr_0.1st_Vout_1.t1 VDDA.t279 sky130_fd_pr__pfet_01v8 ad=0.2 pd=1.4 as=0.2 ps=1.4 w=1 l=0.2
X64 two_stage_opamp_dummy_magic_0.VD1.t8 two_stage_opamp_dummy_magic_0.VIN- two_stage_opamp_dummy_magic_0.V_p.t36 GNDA.t110 sky130_fd_pr__nfet_01v8 ad=0.3 pd=1.9 as=0.3 ps=1.9 w=1.5 l=0.15
X65 two_stage_opamp_dummy_magic_0.V_tail_gate.t10 bgr_0.PFET_GATE_10uA.t13 VDDA.t411 VDDA.t410 sky130_fd_pr__pfet_01v8 ad=0.2 pd=1.4 as=0.2 ps=1.4 w=1 l=0.15
X66 bgr_0.V_TOP.t17 VDDA.t257 sky130_fd_pr__cap_mim_m3_1 l=2 w=2
X67 GNDA.t339 bgr_0.NFET_GATE_10uA.t5 two_stage_opamp_dummy_magic_0.Vb2.t8 GNDA.t338 sky130_fd_pr__nfet_01v8 ad=0.2 pd=1.4 as=0.2 ps=1.4 w=1 l=0.15
X68 VDDA.t419 two_stage_opamp_dummy_magic_0.Vb3.t9 two_stage_opamp_dummy_magic_0.VD3.t29 VDDA.t418 sky130_fd_pr__pfet_01v8 ad=0.7 pd=3.9 as=0.7 ps=3.9 w=3.5 l=0.2
X69 bgr_0.1st_Vout_2.t14 bgr_0.cap_res2.t19 sky130_fd_pr__cap_mim_m3_1 l=2 w=2
X70 two_stage_opamp_dummy_magic_0.VOUT+.t31 two_stage_opamp_dummy_magic_0.cap_res_Y.t126 sky130_fd_pr__cap_mim_m3_1 l=2 w=2
X71 two_stage_opamp_dummy_magic_0.Vb1.t1 VDDA.t109 VDDA.t111 VDDA.t110 sky130_fd_pr__pfet_01v8 ad=0.2 pd=1.4 as=0.4 ps=2.8 w=1 l=0.15
X72 two_stage_opamp_dummy_magic_0.X.t8 two_stage_opamp_dummy_magic_0.Vb2.t11 two_stage_opamp_dummy_magic_0.VD3.t22 two_stage_opamp_dummy_magic_0.VD3.t21 sky130_fd_pr__pfet_01v8 ad=0.7 pd=3.9 as=0.7 ps=3.9 w=3.5 l=0.2
X73 bgr_0.1st_Vout_1.t8 bgr_0.Vin+.t6 bgr_0.V_p_1.t9 GNDA.t327 sky130_fd_pr__nfet_01v8 ad=0.1 pd=0.9 as=0.1 ps=0.9 w=0.5 l=0.2
X74 two_stage_opamp_dummy_magic_0.VOUT-.t34 two_stage_opamp_dummy_magic_0.cap_res_X.t123 sky130_fd_pr__cap_mim_m3_1 l=2 w=2
X75 GNDA.t53 two_stage_opamp_dummy_magic_0.V_b_2nd_stage.t2 two_stage_opamp_dummy_magic_0.VOUT+.t3 GNDA.t52 sky130_fd_pr__nfet_01v8 ad=1.4 pd=7.4 as=1.4 ps=7.4 w=7 l=0.6
X76 GNDA.t284 two_stage_opamp_dummy_magic_0.X.t28 two_stage_opamp_dummy_magic_0.V_CMFB_S1.t10 VDDA.t316 sky130_fd_pr__pfet_01v8 ad=0.4 pd=2.4 as=0.4 ps=2.4 w=2 l=0.15
X77 GNDA.t237 two_stage_opamp_dummy_magic_0.V_tail_gate.t12 two_stage_opamp_dummy_magic_0.V_p.t27 GNDA.t236 sky130_fd_pr__nfet_01v8 ad=0.5 pd=2.9 as=0.5 ps=2.9 w=2.5 l=0.15
X78 VDDA.t108 VDDA.t106 bgr_0.V_TOP.t3 VDDA.t107 sky130_fd_pr__pfet_01v8 ad=0.4 pd=2.8 as=0.2 ps=1.4 w=1 l=0.15
X79 GNDA.t210 GNDA.t208 two_stage_opamp_dummy_magic_0.VD1.t11 GNDA.t209 sky130_fd_pr__nfet_01v8 ad=0.6 pd=3.8 as=0.3 ps=1.9 w=1.5 l=0.15
X80 two_stage_opamp_dummy_magic_0.VOUT+.t32 two_stage_opamp_dummy_magic_0.cap_res_Y.t125 sky130_fd_pr__cap_mim_m3_1 l=2 w=2
X81 bgr_0.PFET_GATE_10uA.t9 bgr_0.1st_Vout_2.t15 VDDA.t442 VDDA.t441 sky130_fd_pr__pfet_01v8 ad=0.2 pd=1.4 as=0.2 ps=1.4 w=1 l=0.2
X82 two_stage_opamp_dummy_magic_0.VOUT+.t33 two_stage_opamp_dummy_magic_0.cap_res_Y.t124 sky130_fd_pr__cap_mim_m3_1 l=2 w=2
X83 two_stage_opamp_dummy_magic_0.VOUT-.t35 two_stage_opamp_dummy_magic_0.cap_res_X.t122 sky130_fd_pr__cap_mim_m3_1 l=2 w=2
X84 two_stage_opamp_dummy_magic_0.VOUT+.t34 two_stage_opamp_dummy_magic_0.cap_res_Y.t123 sky130_fd_pr__cap_mim_m3_1 l=2 w=2
X85 two_stage_opamp_dummy_magic_0.V_CMFB_S1.t1 VDDA.t103 VDDA.t105 VDDA.t104 sky130_fd_pr__pfet_01v8 ad=0.2 pd=1.4 as=0.4 ps=2.8 w=1 l=0.15
X86 two_stage_opamp_dummy_magic_0.VOUT-.t36 two_stage_opamp_dummy_magic_0.cap_res_X.t121 sky130_fd_pr__cap_mim_m3_1 l=2 w=2
X87 GNDA.t73 bgr_0.NFET_GATE_10uA.t6 two_stage_opamp_dummy_magic_0.Vb2.t7 GNDA.t72 sky130_fd_pr__nfet_01v8 ad=0.2 pd=1.4 as=0.2 ps=1.4 w=1 l=0.15
X88 two_stage_opamp_dummy_magic_0.VOUT+.t17 two_stage_opamp_dummy_magic_0.Y.t27 VDDA.t1 VDDA.t0 sky130_fd_pr__pfet_01v8 ad=1.2 pd=6.4 as=1.2 ps=6.4 w=6 l=0.15
X89 bgr_0.V_p_2.t9 bgr_0.V_CUR_REF_REG.t4 bgr_0.1st_Vout_2.t9 GNDA.t319 sky130_fd_pr__nfet_01v8 ad=0.1 pd=0.9 as=0.2 ps=1.8 w=0.5 l=0.2
X90 GNDA.t207 GNDA.t205 GNDA.t207 GNDA.t206 sky130_fd_pr__nfet_01v8 ad=0.5 pd=2.9 as=0 ps=0 w=2.5 l=0.15
X91 GNDA.t204 GNDA.t202 two_stage_opamp_dummy_magic_0.VD1.t10 GNDA.t203 sky130_fd_pr__nfet_01v8 ad=0.6 pd=3.8 as=0.3 ps=1.9 w=1.5 l=0.15
X92 VDDA.t362 two_stage_opamp_dummy_magic_0.V_err_gate.t17 two_stage_opamp_dummy_magic_0.V_err_p.t10 VDDA.t361 sky130_fd_pr__pfet_01v8 ad=0.1 pd=0.9 as=0.1 ps=0.9 w=0.5 l=0.15
X93 VDDA.t291 bgr_0.V_mir1.t18 bgr_0.1st_Vout_1.t2 VDDA.t290 sky130_fd_pr__pfet_01v8 ad=0.2 pd=1.4 as=0.2 ps=1.4 w=1 l=0.2
X94 two_stage_opamp_dummy_magic_0.VOUT+.t35 two_stage_opamp_dummy_magic_0.cap_res_Y.t122 sky130_fd_pr__cap_mim_m3_1 l=2 w=2
X95 bgr_0.1st_Vout_2.t16 bgr_0.cap_res2.t18 sky130_fd_pr__cap_mim_m3_1 l=2 w=2
X96 GNDA.t201 GNDA.t199 two_stage_opamp_dummy_magic_0.VOUT+.t7 GNDA.t200 sky130_fd_pr__nfet_01v8 ad=2.8 pd=14.8 as=1.4 ps=7.4 w=7 l=0.6
X97 two_stage_opamp_dummy_magic_0.V_CMFB_S2.t10 two_stage_opamp_dummy_magic_0.X.t29 VDDA.t317 GNDA.t285 sky130_fd_pr__nfet_01v8 ad=0.6 pd=3.4 as=0.6 ps=3.4 w=3 l=0.15
X98 two_stage_opamp_dummy_magic_0.X.t24 two_stage_opamp_dummy_magic_0.Vb2.t12 two_stage_opamp_dummy_magic_0.VD3.t37 two_stage_opamp_dummy_magic_0.VD3.t36 sky130_fd_pr__pfet_01v8 ad=0.7 pd=3.9 as=0.7 ps=3.9 w=3.5 l=0.2
X99 bgr_0.V_mir2.t11 bgr_0.V_mir2.t10 VDDA.t423 VDDA.t422 sky130_fd_pr__pfet_01v8 ad=0.2 pd=1.4 as=0.2 ps=1.4 w=1 l=0.2
X100 GNDA.t178 GNDA.t176 two_stage_opamp_dummy_magic_0.X.t5 GNDA.t177 sky130_fd_pr__nfet_01v8 ad=0.6 pd=3.8 as=0.3 ps=1.9 w=1.5 l=0.15
X101 two_stage_opamp_dummy_magic_0.V_err_amp_ref.t4 bgr_0.V_TOP.t18 VDDA.t196 VDDA.t195 sky130_fd_pr__pfet_01v8 ad=0.6 pd=3.4 as=0.6 ps=3.4 w=3 l=0.5
X102 two_stage_opamp_dummy_magic_0.V_err_mir_p.t11 two_stage_opamp_dummy_magic_0.V_err_gate.t18 VDDA.t356 VDDA.t355 sky130_fd_pr__pfet_01v8 ad=0.1 pd=0.9 as=0.1 ps=0.9 w=0.5 l=0.15
X103 two_stage_opamp_dummy_magic_0.VOUT-.t4 two_stage_opamp_dummy_magic_0.X.t30 VDDA.t137 VDDA.t136 sky130_fd_pr__pfet_01v8 ad=1.2 pd=6.4 as=1.2 ps=6.4 w=6 l=0.15
X104 two_stage_opamp_dummy_magic_0.VOUT+.t36 two_stage_opamp_dummy_magic_0.cap_res_Y.t121 sky130_fd_pr__cap_mim_m3_1 l=2 w=2
X105 two_stage_opamp_dummy_magic_0.VOUT+.t37 two_stage_opamp_dummy_magic_0.cap_res_Y.t120 sky130_fd_pr__cap_mim_m3_1 l=2 w=2
X106 two_stage_opamp_dummy_magic_0.VOUT+.t38 two_stage_opamp_dummy_magic_0.cap_res_Y.t119 sky130_fd_pr__cap_mim_m3_1 l=2 w=2
X107 two_stage_opamp_dummy_magic_0.VOUT+.t39 two_stage_opamp_dummy_magic_0.cap_res_Y.t118 sky130_fd_pr__cap_mim_m3_1 l=2 w=2
X108 two_stage_opamp_dummy_magic_0.VOUT+.t40 two_stage_opamp_dummy_magic_0.cap_res_Y.t117 sky130_fd_pr__cap_mim_m3_1 l=2 w=2
X109 bgr_0.1st_Vout_2.t17 bgr_0.cap_res2.t17 sky130_fd_pr__cap_mim_m3_1 l=2 w=2
X110 a_14640_5738.t0 two_stage_opamp_dummy_magic_0.V_tot.t1 GNDA.t244 sky130_fd_pr__res_xhigh_po_0p35 l=1.75
X111 two_stage_opamp_dummy_magic_0.VOUT-.t37 two_stage_opamp_dummy_magic_0.cap_res_X.t120 sky130_fd_pr__cap_mim_m3_1 l=2 w=2
X112 two_stage_opamp_dummy_magic_0.VOUT-.t38 two_stage_opamp_dummy_magic_0.cap_res_X.t119 sky130_fd_pr__cap_mim_m3_1 l=2 w=2
X113 two_stage_opamp_dummy_magic_0.VOUT-.t39 two_stage_opamp_dummy_magic_0.cap_res_X.t118 sky130_fd_pr__cap_mim_m3_1 l=2 w=2
X114 VDDA.t102 VDDA.t100 two_stage_opamp_dummy_magic_0.VD3.t1 VDDA.t101 sky130_fd_pr__pfet_01v8 ad=1.4 pd=7.8 as=0.7 ps=3.9 w=3.5 l=0.2
X115 two_stage_opamp_dummy_magic_0.V_CMFB_S4.t2 bgr_0.NFET_GATE_10uA.t7 GNDA.t92 GNDA.t91 sky130_fd_pr__nfet_01v8 ad=0.2 pd=1.4 as=0.2 ps=1.4 w=1 l=0.15
X116 two_stage_opamp_dummy_magic_0.VOUT-.t40 two_stage_opamp_dummy_magic_0.cap_res_X.t117 sky130_fd_pr__cap_mim_m3_1 l=2 w=2
X117 VDDA.t198 bgr_0.V_TOP.t19 bgr_0.START_UP.t2 VDDA.t197 sky130_fd_pr__pfet_01v8 ad=0.6 pd=3.4 as=0.6 ps=3.4 w=3 l=0.5
X118 GNDA.t286 two_stage_opamp_dummy_magic_0.Y.t28 two_stage_opamp_dummy_magic_0.V_CMFB_S3.t7 VDDA.t324 sky130_fd_pr__pfet_01v8 ad=0.4 pd=2.4 as=0.4 ps=2.4 w=2 l=0.15
X119 two_stage_opamp_dummy_magic_0.VOUT-.t41 two_stage_opamp_dummy_magic_0.cap_res_X.t116 sky130_fd_pr__cap_mim_m3_1 l=2 w=2
X120 VDDA.t138 two_stage_opamp_dummy_magic_0.X.t31 two_stage_opamp_dummy_magic_0.V_CMFB_S2.t9 GNDA.t16 sky130_fd_pr__nfet_01v8 ad=0.6 pd=3.4 as=0.6 ps=3.4 w=3 l=0.15
X121 two_stage_opamp_dummy_magic_0.V_tail_gate.t9 bgr_0.PFET_GATE_10uA.t14 VDDA.t409 VDDA.t408 sky130_fd_pr__pfet_01v8 ad=0.2 pd=1.4 as=0.2 ps=1.4 w=1 l=0.15
X122 two_stage_opamp_dummy_magic_0.VD4.t37 two_stage_opamp_dummy_magic_0.Vb2.t13 two_stage_opamp_dummy_magic_0.Y.t10 two_stage_opamp_dummy_magic_0.VD4.t36 sky130_fd_pr__pfet_01v8 ad=0.7 pd=3.9 as=0.7 ps=3.9 w=3.5 l=0.2
X123 two_stage_opamp_dummy_magic_0.VOUT+.t41 two_stage_opamp_dummy_magic_0.cap_res_Y.t116 sky130_fd_pr__cap_mim_m3_1 l=2 w=2
X124 GNDA.t198 GNDA.t196 two_stage_opamp_dummy_magic_0.Y.t4 GNDA.t197 sky130_fd_pr__nfet_01v8 ad=0.6 pd=3.8 as=0.3 ps=1.9 w=1.5 l=0.15
X125 GNDA.t46 two_stage_opamp_dummy_magic_0.X.t32 two_stage_opamp_dummy_magic_0.V_CMFB_S1.t9 VDDA.t168 sky130_fd_pr__pfet_01v8 ad=0.4 pd=2.4 as=0.4 ps=2.4 w=2 l=0.15
X126 GNDA.t239 two_stage_opamp_dummy_magic_0.V_tail_gate.t13 two_stage_opamp_dummy_magic_0.V_p.t26 GNDA.t238 sky130_fd_pr__nfet_01v8 ad=0.5 pd=2.9 as=0.5 ps=2.9 w=2.5 l=0.15
X127 two_stage_opamp_dummy_magic_0.VOUT+.t42 two_stage_opamp_dummy_magic_0.cap_res_Y.t115 sky130_fd_pr__cap_mim_m3_1 l=2 w=2
X128 GNDA.t47 two_stage_opamp_dummy_magic_0.X.t33 two_stage_opamp_dummy_magic_0.V_CMFB_S1.t8 VDDA.t169 sky130_fd_pr__pfet_01v8 ad=0.4 pd=2.4 as=0.4 ps=2.4 w=2 l=0.15
X129 two_stage_opamp_dummy_magic_0.X.t21 two_stage_opamp_dummy_magic_0.Vb1.t7 two_stage_opamp_dummy_magic_0.VD2.t11 GNDA.t60 sky130_fd_pr__nfet_01v8 ad=0.3 pd=1.9 as=0.3 ps=1.9 w=1.5 l=0.15
X130 VDDA.t253 bgr_0.1st_Vout_2.t18 bgr_0.PFET_GATE_10uA.t3 VDDA.t252 sky130_fd_pr__pfet_01v8 ad=0.2 pd=1.4 as=0.2 ps=1.4 w=1 l=0.2
X131 two_stage_opamp_dummy_magic_0.VOUT+.t43 two_stage_opamp_dummy_magic_0.cap_res_Y.t114 sky130_fd_pr__cap_mim_m3_1 l=2 w=2
X132 two_stage_opamp_dummy_magic_0.VOUT-.t42 two_stage_opamp_dummy_magic_0.cap_res_X.t115 sky130_fd_pr__cap_mim_m3_1 l=2 w=2
X133 bgr_0.1st_Vout_1.t14 bgr_0.cap_res1.t17 sky130_fd_pr__cap_mim_m3_1 l=2 w=2
X134 bgr_0.Vin-.t7 bgr_0.START_UP.t6 bgr_0.V_TOP.t11 VDDA.t281 sky130_fd_pr__pfet_01v8 ad=0.2 pd=1.4 as=0.2 ps=1.4 w=1 l=0.15
X135 two_stage_opamp_dummy_magic_0.V_p.t9 two_stage_opamp_dummy_magic_0.VIN+ two_stage_opamp_dummy_magic_0.VD2.t3 GNDA.t28 sky130_fd_pr__nfet_01v8 ad=0.3 pd=1.9 as=0.3 ps=1.9 w=1.5 l=0.15
X136 two_stage_opamp_dummy_magic_0.VOUT+.t44 two_stage_opamp_dummy_magic_0.cap_res_Y.t113 sky130_fd_pr__cap_mim_m3_1 l=2 w=2
X137 two_stage_opamp_dummy_magic_0.VOUT-.t16 a_5750_2946.t1 GNDA.t271 sky130_fd_pr__res_xhigh_po_0p35 l=2.63
X138 two_stage_opamp_dummy_magic_0.VOUT-.t43 two_stage_opamp_dummy_magic_0.cap_res_X.t114 sky130_fd_pr__cap_mim_m3_1 l=2 w=2
X139 two_stage_opamp_dummy_magic_0.VOUT-.t44 two_stage_opamp_dummy_magic_0.cap_res_X.t113 sky130_fd_pr__cap_mim_m3_1 l=2 w=2
X140 a_29640_9790.t0 two_stage_opamp_dummy_magic_0.V_err_amp_ref.t0 GNDA.t0 sky130_fd_pr__res_xhigh_po_0p35 l=6.3
X141 VDDA.t179 bgr_0.V_TOP.t20 bgr_0.Vin+.t5 VDDA.t178 sky130_fd_pr__pfet_01v8 ad=0.6 pd=3.4 as=0.6 ps=3.4 w=3 l=0.5
X142 two_stage_opamp_dummy_magic_0.VOUT+.t16 two_stage_opamp_dummy_magic_0.Y.t29 VDDA.t468 VDDA.t467 sky130_fd_pr__pfet_01v8 ad=1.2 pd=6.4 as=1.2 ps=6.4 w=6 l=0.15
X143 two_stage_opamp_dummy_magic_0.V_p.t25 two_stage_opamp_dummy_magic_0.V_tail_gate.t14 GNDA.t2 GNDA.t1 sky130_fd_pr__nfet_01v8 ad=0.5 pd=2.9 as=0.5 ps=2.9 w=2.5 l=0.15
X144 two_stage_opamp_dummy_magic_0.V_p.t8 two_stage_opamp_dummy_magic_0.VIN+ two_stage_opamp_dummy_magic_0.VD2.t2 GNDA.t27 sky130_fd_pr__nfet_01v8 ad=0.3 pd=1.9 as=0.3 ps=1.9 w=1.5 l=0.15
X145 two_stage_opamp_dummy_magic_0.VOUT+.t45 two_stage_opamp_dummy_magic_0.cap_res_Y.t112 sky130_fd_pr__cap_mim_m3_1 l=2 w=2
X146 bgr_0.V_TOP.t21 VDDA.t180 sky130_fd_pr__cap_mim_m3_1 l=2 w=2
X147 two_stage_opamp_dummy_magic_0.VOUT+.t46 two_stage_opamp_dummy_magic_0.cap_res_Y.t111 sky130_fd_pr__cap_mim_m3_1 l=2 w=2
X148 two_stage_opamp_dummy_magic_0.VD3.t14 two_stage_opamp_dummy_magic_0.Vb3.t10 VDDA.t163 VDDA.t162 sky130_fd_pr__pfet_01v8 ad=0.7 pd=3.9 as=0.7 ps=3.9 w=3.5 l=0.2
X149 two_stage_opamp_dummy_magic_0.VOUT-.t45 two_stage_opamp_dummy_magic_0.cap_res_X.t112 sky130_fd_pr__cap_mim_m3_1 l=2 w=2
X150 bgr_0.V_p_1.t10 bgr_0.Vin-.t8 bgr_0.V_mir1.t16 GNDA.t223 sky130_fd_pr__nfet_01v8 ad=0.1 pd=0.9 as=0.2 ps=1.8 w=0.5 l=0.2
X151 two_stage_opamp_dummy_magic_0.VOUT+.t47 two_stage_opamp_dummy_magic_0.cap_res_Y.t110 sky130_fd_pr__cap_mim_m3_1 l=2 w=2
X152 two_stage_opamp_dummy_magic_0.VOUT+.t48 two_stage_opamp_dummy_magic_0.cap_res_Y.t109 sky130_fd_pr__cap_mim_m3_1 l=2 w=2
X153 two_stage_opamp_dummy_magic_0.Vb2.t6 bgr_0.NFET_GATE_10uA.t8 GNDA.t35 GNDA.t34 sky130_fd_pr__nfet_01v8 ad=0.2 pd=1.4 as=0.2 ps=1.4 w=1 l=0.15
X154 two_stage_opamp_dummy_magic_0.VOUT+.t49 two_stage_opamp_dummy_magic_0.cap_res_Y.t108 sky130_fd_pr__cap_mim_m3_1 l=2 w=2
X155 VDDA.t99 VDDA.t97 two_stage_opamp_dummy_magic_0.Vb1.t0 VDDA.t98 sky130_fd_pr__pfet_01v8 ad=0.4 pd=2.8 as=0.2 ps=1.4 w=1 l=0.15
X156 two_stage_opamp_dummy_magic_0.VOUT+.t6 GNDA.t193 GNDA.t195 GNDA.t194 sky130_fd_pr__nfet_01v8 ad=1.4 pd=7.4 as=2.8 ps=14.8 w=7 l=0.6
X157 two_stage_opamp_dummy_magic_0.V_CMFB_S3.t6 VDDA.t94 VDDA.t96 VDDA.t95 sky130_fd_pr__pfet_01v8 ad=0.2 pd=1.4 as=0.4 ps=2.8 w=1 l=0.15
X158 two_stage_opamp_dummy_magic_0.VOUT+.t50 two_stage_opamp_dummy_magic_0.cap_res_Y.t107 sky130_fd_pr__cap_mim_m3_1 l=2 w=2
X159 bgr_0.V_TOP.t22 VDDA.t274 sky130_fd_pr__cap_mim_m3_1 l=2 w=2
X160 two_stage_opamp_dummy_magic_0.VOUT+.t51 two_stage_opamp_dummy_magic_0.cap_res_Y.t106 sky130_fd_pr__cap_mim_m3_1 l=2 w=2
X161 two_stage_opamp_dummy_magic_0.VD2.t18 two_stage_opamp_dummy_magic_0.Vb1.t8 two_stage_opamp_dummy_magic_0.X.t20 GNDA.t321 sky130_fd_pr__nfet_01v8 ad=0.3 pd=1.9 as=0.3 ps=1.9 w=1.5 l=0.15
X162 GNDA.t346 bgr_0.NFET_GATE_10uA.t9 two_stage_opamp_dummy_magic_0.Vb3.t7 GNDA.t345 sky130_fd_pr__nfet_01v8 ad=0.2 pd=1.4 as=0.2 ps=1.4 w=1 l=0.15
X163 bgr_0.V_p_2.t1 bgr_0.V_CUR_REF_REG.t5 bgr_0.1st_Vout_2.t6 GNDA.t275 sky130_fd_pr__nfet_01v8 ad=0.1 pd=0.9 as=0.1 ps=0.9 w=0.5 l=0.2
X164 two_stage_opamp_dummy_magic_0.VOUT-.t46 two_stage_opamp_dummy_magic_0.cap_res_X.t111 sky130_fd_pr__cap_mim_m3_1 l=2 w=2
X165 two_stage_opamp_dummy_magic_0.VOUT-.t47 two_stage_opamp_dummy_magic_0.cap_res_X.t110 sky130_fd_pr__cap_mim_m3_1 l=2 w=2
X166 two_stage_opamp_dummy_magic_0.VOUT-.t0 two_stage_opamp_dummy_magic_0.X.t34 VDDA.t123 VDDA.t122 sky130_fd_pr__pfet_01v8 ad=1.2 pd=6.4 as=1.2 ps=6.4 w=6 l=0.15
X167 VDDA.t255 bgr_0.1st_Vout_2.t19 bgr_0.PFET_GATE_10uA.t4 VDDA.t254 sky130_fd_pr__pfet_01v8 ad=0.2 pd=1.4 as=0.2 ps=1.4 w=1 l=0.2
X168 two_stage_opamp_dummy_magic_0.VOUT-.t1 two_stage_opamp_dummy_magic_0.X.t35 VDDA.t125 VDDA.t124 sky130_fd_pr__pfet_01v8 ad=1.2 pd=6.4 as=1.2 ps=6.4 w=6 l=0.15
X169 VDDA.t313 bgr_0.V_mir1.t14 bgr_0.V_mir1.t15 VDDA.t312 sky130_fd_pr__pfet_01v8 ad=0.2 pd=1.4 as=0.2 ps=1.4 w=1 l=0.2
X170 VDDA.t267 two_stage_opamp_dummy_magic_0.Y.t30 two_stage_opamp_dummy_magic_0.V_CMFB_S4.t13 GNDA.t253 sky130_fd_pr__nfet_01v8 ad=0.6 pd=3.4 as=0.6 ps=3.4 w=3 l=0.15
X171 two_stage_opamp_dummy_magic_0.VOUT-.t48 two_stage_opamp_dummy_magic_0.cap_res_X.t109 sky130_fd_pr__cap_mim_m3_1 l=2 w=2
X172 two_stage_opamp_dummy_magic_0.VOUT-.t49 two_stage_opamp_dummy_magic_0.cap_res_X.t108 sky130_fd_pr__cap_mim_m3_1 l=2 w=2
X173 two_stage_opamp_dummy_magic_0.VOUT-.t9 two_stage_opamp_dummy_magic_0.V_b_2nd_stage.t3 GNDA.t100 GNDA.t99 sky130_fd_pr__nfet_01v8 ad=1.4 pd=7.4 as=1.4 ps=7.4 w=7 l=0.6
X174 two_stage_opamp_dummy_magic_0.Vb2.t5 bgr_0.NFET_GATE_10uA.t10 GNDA.t294 GNDA.t293 sky130_fd_pr__nfet_01v8 ad=0.2 pd=1.4 as=0.2 ps=1.4 w=1 l=0.15
X175 bgr_0.V_mir1.t13 bgr_0.V_mir1.t12 VDDA.t430 VDDA.t429 sky130_fd_pr__pfet_01v8 ad=0.2 pd=1.4 as=0.2 ps=1.4 w=1 l=0.2
X176 bgr_0.V_TOP.t23 VDDA.t275 sky130_fd_pr__cap_mim_m3_1 l=2 w=2
X177 two_stage_opamp_dummy_magic_0.cap_res_X.t0 two_stage_opamp_dummy_magic_0.X.t9 GNDA.t307 sky130_fd_pr__res_high_po_1p41 l=1.41
X178 two_stage_opamp_dummy_magic_0.VOUT-.t50 two_stage_opamp_dummy_magic_0.cap_res_X.t107 sky130_fd_pr__cap_mim_m3_1 l=2 w=2
X179 GNDA.t95 two_stage_opamp_dummy_magic_0.Y.t31 two_stage_opamp_dummy_magic_0.V_CMFB_S3.t4 VDDA.t210 sky130_fd_pr__pfet_01v8 ad=0.4 pd=2.4 as=0.4 ps=2.4 w=2 l=0.15
X180 bgr_0.1st_Vout_2.t20 bgr_0.cap_res2.t16 sky130_fd_pr__cap_mim_m3_1 l=2 w=2
X181 two_stage_opamp_dummy_magic_0.VOUT+.t52 two_stage_opamp_dummy_magic_0.cap_res_Y.t105 sky130_fd_pr__cap_mim_m3_1 l=2 w=2
X182 GNDA.t137 GNDA.t181 bgr_0.Vbe2.t7 sky130_fd_pr__pnp_05v5_W3p40L3p40
**devattr s=462400,2720
X183 two_stage_opamp_dummy_magic_0.VD3.t9 two_stage_opamp_dummy_magic_0.Vb3.t11 VDDA.t148 VDDA.t147 sky130_fd_pr__pfet_01v8 ad=0.7 pd=3.9 as=0.7 ps=3.9 w=3.5 l=0.2
X184 two_stage_opamp_dummy_magic_0.VOUT+.t53 two_stage_opamp_dummy_magic_0.cap_res_Y.t104 sky130_fd_pr__cap_mim_m3_1 l=2 w=2
X185 two_stage_opamp_dummy_magic_0.VD3.t25 two_stage_opamp_dummy_magic_0.Vb2.t14 two_stage_opamp_dummy_magic_0.X.t10 two_stage_opamp_dummy_magic_0.VD3.t24 sky130_fd_pr__pfet_01v8 ad=0.7 pd=3.9 as=0.7 ps=3.9 w=3.5 l=0.2
X186 bgr_0.V_p_1.t8 bgr_0.Vin+.t7 bgr_0.1st_Vout_1.t7 GNDA.t326 sky130_fd_pr__nfet_01v8 ad=0.1 pd=0.9 as=0.1 ps=0.9 w=0.5 l=0.2
X187 two_stage_opamp_dummy_magic_0.err_amp_out.t5 two_stage_opamp_dummy_magic_0.err_amp_mir.t17 GNDA.t342 GNDA.t341 sky130_fd_pr__nfet_01v8 ad=0.1 pd=0.9 as=0.1 ps=0.9 w=0.5 l=0.15
X188 VDDA.t201 two_stage_opamp_dummy_magic_0.X.t36 two_stage_opamp_dummy_magic_0.V_CMFB_S2.t8 GNDA.t93 sky130_fd_pr__nfet_01v8 ad=0.6 pd=3.4 as=0.6 ps=3.4 w=3 l=0.15
X189 bgr_0.V_CUR_REF_REG.t0 VDDA.t63 VDDA.t65 VDDA.t64 sky130_fd_pr__pfet_01v8 ad=0.2 pd=1.4 as=0.4 ps=2.8 w=1 l=0.15
X190 two_stage_opamp_dummy_magic_0.VOUT-.t51 two_stage_opamp_dummy_magic_0.cap_res_X.t106 sky130_fd_pr__cap_mim_m3_1 l=2 w=2
X191 two_stage_opamp_dummy_magic_0.V_tail_gate.t8 bgr_0.PFET_GATE_10uA.t15 VDDA.t407 VDDA.t406 sky130_fd_pr__pfet_01v8 ad=0.2 pd=1.4 as=0.2 ps=1.4 w=1 l=0.15
X192 two_stage_opamp_dummy_magic_0.VD1.t20 two_stage_opamp_dummy_magic_0.Vb1.t9 two_stage_opamp_dummy_magic_0.Y.t12 GNDA.t322 sky130_fd_pr__nfet_01v8 ad=0.3 pd=1.9 as=0.3 ps=1.9 w=1.5 l=0.15
X193 two_stage_opamp_dummy_magic_0.VOUT-.t52 two_stage_opamp_dummy_magic_0.cap_res_X.t105 sky130_fd_pr__cap_mim_m3_1 l=2 w=2
X194 bgr_0.1st_Vout_2.t21 bgr_0.cap_res2.t15 sky130_fd_pr__cap_mim_m3_1 l=2 w=2
X195 two_stage_opamp_dummy_magic_0.VOUT+.t54 two_stage_opamp_dummy_magic_0.cap_res_Y.t103 sky130_fd_pr__cap_mim_m3_1 l=2 w=2
X196 VDDA.t93 VDDA.t91 two_stage_opamp_dummy_magic_0.V_err_p.t2 VDDA.t92 sky130_fd_pr__pfet_01v8 ad=0.2 pd=1.8 as=0.1 ps=0.9 w=0.5 l=0.15
X197 two_stage_opamp_dummy_magic_0.VOUT-.t53 two_stage_opamp_dummy_magic_0.cap_res_X.t104 sky130_fd_pr__cap_mim_m3_1 l=2 w=2
X198 two_stage_opamp_dummy_magic_0.VOUT-.t54 two_stage_opamp_dummy_magic_0.cap_res_X.t103 sky130_fd_pr__cap_mim_m3_1 l=2 w=2
X199 GNDA.t4 two_stage_opamp_dummy_magic_0.V_tail_gate.t15 two_stage_opamp_dummy_magic_0.V_p.t24 GNDA.t3 sky130_fd_pr__nfet_01v8 ad=0.5 pd=2.9 as=0.5 ps=2.9 w=2.5 l=0.15
X200 two_stage_opamp_dummy_magic_0.VOUT-.t55 two_stage_opamp_dummy_magic_0.cap_res_X.t102 sky130_fd_pr__cap_mim_m3_1 l=2 w=2
X201 GNDA.t137 GNDA.t192 bgr_0.Vbe2.t6 sky130_fd_pr__pnp_05v5_W3p40L3p40
**devattr s=462400,2720
X202 two_stage_opamp_dummy_magic_0.err_amp_out.t11 two_stage_opamp_dummy_magic_0.V_err_amp_ref.t9 two_stage_opamp_dummy_magic_0.V_err_p.t19 VDDA.t216 sky130_fd_pr__pfet_01v8 ad=0.1 pd=0.9 as=0.1 ps=0.9 w=0.5 l=0.15
X203 GNDA.t94 two_stage_opamp_dummy_magic_0.X.t37 two_stage_opamp_dummy_magic_0.V_CMFB_S1.t7 VDDA.t202 sky130_fd_pr__pfet_01v8 ad=0.4 pd=2.4 as=0.4 ps=2.4 w=2 l=0.15
X204 a_5230_5758.t1 two_stage_opamp_dummy_magic_0.V_tot.t2 GNDA.t254 sky130_fd_pr__res_xhigh_po_0p35 l=1.85
X205 bgr_0.Vin-.t5 bgr_0.V_TOP.t24 VDDA.t444 VDDA.t443 sky130_fd_pr__pfet_01v8 ad=0.6 pd=3.4 as=0.6 ps=3.4 w=3 l=0.5
X206 bgr_0.V_mir1.t11 bgr_0.V_mir1.t10 VDDA.t261 VDDA.t260 sky130_fd_pr__pfet_01v8 ad=0.2 pd=1.4 as=0.2 ps=1.4 w=1 l=0.2
X207 bgr_0.1st_Vout_2.t22 bgr_0.cap_res2.t14 sky130_fd_pr__cap_mim_m3_1 l=2 w=2
X208 two_stage_opamp_dummy_magic_0.VOUT+.t55 two_stage_opamp_dummy_magic_0.cap_res_Y.t102 sky130_fd_pr__cap_mim_m3_1 l=2 w=2
X209 two_stage_opamp_dummy_magic_0.VOUT+.t56 two_stage_opamp_dummy_magic_0.cap_res_Y.t101 sky130_fd_pr__cap_mim_m3_1 l=2 w=2
X210 two_stage_opamp_dummy_magic_0.VOUT+.t57 two_stage_opamp_dummy_magic_0.cap_res_Y.t100 sky130_fd_pr__cap_mim_m3_1 l=2 w=2
X211 two_stage_opamp_dummy_magic_0.VOUT-.t56 two_stage_opamp_dummy_magic_0.cap_res_X.t101 sky130_fd_pr__cap_mim_m3_1 l=2 w=2
X212 two_stage_opamp_dummy_magic_0.VOUT+.t58 two_stage_opamp_dummy_magic_0.cap_res_Y.t99 sky130_fd_pr__cap_mim_m3_1 l=2 w=2
X213 two_stage_opamp_dummy_magic_0.V_p.t7 two_stage_opamp_dummy_magic_0.VIN+ two_stage_opamp_dummy_magic_0.VD2.t8 GNDA.t26 sky130_fd_pr__nfet_01v8 ad=0.3 pd=1.9 as=0.3 ps=1.9 w=1.5 l=0.15
X214 two_stage_opamp_dummy_magic_0.V_p.t23 two_stage_opamp_dummy_magic_0.V_tail_gate.t16 GNDA.t229 GNDA.t228 sky130_fd_pr__nfet_01v8 ad=0.5 pd=2.9 as=0.5 ps=2.9 w=2.5 l=0.15
X215 two_stage_opamp_dummy_magic_0.VOUT-.t57 two_stage_opamp_dummy_magic_0.cap_res_X.t100 sky130_fd_pr__cap_mim_m3_1 l=2 w=2
X216 VDDA.t185 two_stage_opamp_dummy_magic_0.Vb3.t12 two_stage_opamp_dummy_magic_0.VD4.t11 VDDA.t184 sky130_fd_pr__pfet_01v8 ad=0.7 pd=3.9 as=0.7 ps=3.9 w=3.5 l=0.2