* PEX produced on Thu Jul  3 03:10:36 PM CEST 2025 using /foss/tools/osic-multitool/iic-pex.sh with m=3 and s=1
* NGSPICE file created from bgr_opamp_dummy_magic_5.ext - technology: sky130A

.subckt bgr_opamp_dummy_magic_5 VDDA GNDA VOUT+ VOUT- VIN+ VIN-
X0 VDDA.t300 bgr_0.V_TOP.t14 bgr_0.Vin-.t7 VDDA.t299 sky130_fd_pr__pfet_01v8 ad=0.6 pd=3.4 as=0.6 ps=3.4 w=3 l=0.5
X1 bgr_0.1st_Vout_1.t11 bgr_0.cap_res1.t20 sky130_fd_pr__cap_mim_m3_1 l=2 w=2
X2 a_14640_5738.t1 two_stage_opamp_dummy_magic_0.V_CMFB_S3.t8 GNDA.t176 sky130_fd_pr__res_xhigh_po_0p35 l=1.75
X3 bgr_0.V_TOP.t15 VDDA.t298 sky130_fd_pr__cap_mim_m3_1 l=2 w=2
X4 two_stage_opamp_dummy_magic_0.VD2.t19 GNDA.t334 GNDA.t336 GNDA.t335 sky130_fd_pr__nfet_01v8 ad=0.3 pd=1.9 as=0.6 ps=3.8 w=1.5 l=0.15
X5 VOUT-.t19 two_stage_opamp_dummy_magic_0.cap_res_X.t138 sky130_fd_pr__cap_mim_m3_1 l=2 w=2
X6 GNDA.t243 GNDA.t333 bgr_0.Vbe2.t8 sky130_fd_pr__pnp_05v5_W3p40L3p40
**devattr s=462400,2720
X7 VOUT-.t20 two_stage_opamp_dummy_magic_0.cap_res_X.t137 sky130_fd_pr__cap_mim_m3_1 l=2 w=2
X8 VOUT-.t21 two_stage_opamp_dummy_magic_0.cap_res_X.t136 sky130_fd_pr__cap_mim_m3_1 l=2 w=2
X9 bgr_0.NFET_GATE_10uA.t1 bgr_0.NFET_GATE_10uA.t0 GNDA.t118 GNDA.t117 sky130_fd_pr__nfet_01v8 ad=0.2 pd=1.4 as=0.2 ps=1.4 w=1 l=0.15
X10 bgr_0.1st_Vout_1.t12 bgr_0.cap_res1.t19 sky130_fd_pr__cap_mim_m3_1 l=2 w=2
X11 bgr_0.V_TOP.t16 VDDA.t297 sky130_fd_pr__cap_mim_m3_1 l=2 w=2
X12 VDDA.t457 bgr_0.V_mir2.t15 bgr_0.V_mir2.t16 VDDA.t456 sky130_fd_pr__pfet_01v8 ad=0.2 pd=1.4 as=0.2 ps=1.4 w=1 l=0.2
X13 VOUT-.t22 two_stage_opamp_dummy_magic_0.cap_res_X.t135 sky130_fd_pr__cap_mim_m3_1 l=2 w=2
X14 two_stage_opamp_dummy_magic_0.V_err_gate.t4 two_stage_opamp_dummy_magic_0.V_err_amp_ref.t7 two_stage_opamp_dummy_magic_0.V_err_mir_p.t6 VDDA.t36 sky130_fd_pr__pfet_01v8 ad=0.1 pd=0.9 as=0.1 ps=0.9 w=0.5 l=0.15
X15 VOUT-.t23 two_stage_opamp_dummy_magic_0.cap_res_X.t134 sky130_fd_pr__cap_mim_m3_1 l=2 w=2
X16 GNDA.t63 two_stage_opamp_dummy_magic_0.X.t25 two_stage_opamp_dummy_magic_0.V_CMFB_S1.t9 VDDA.t45 sky130_fd_pr__pfet_01v8 ad=0.4 pd=2.4 as=0.4 ps=2.4 w=2 l=0.15
X17 two_stage_opamp_dummy_magic_0.X.t22 GNDA.t330 GNDA.t332 GNDA.t331 sky130_fd_pr__nfet_01v8 ad=0.3 pd=1.9 as=0.6 ps=3.8 w=1.5 l=0.15
X18 VOUT-.t24 two_stage_opamp_dummy_magic_0.cap_res_X.t133 sky130_fd_pr__cap_mim_m3_1 l=2 w=2
X19 VOUT-.t25 two_stage_opamp_dummy_magic_0.cap_res_X.t132 sky130_fd_pr__cap_mim_m3_1 l=2 w=2
X20 VOUT-.t26 two_stage_opamp_dummy_magic_0.cap_res_X.t131 sky130_fd_pr__cap_mim_m3_1 l=2 w=2
X21 VDDA.t17 two_stage_opamp_dummy_magic_0.X.t26 VOUT-.t2 VDDA.t16 sky130_fd_pr__pfet_01v8 ad=1.2 pd=6.4 as=1.2 ps=6.4 w=6 l=0.15
X22 VDDA.t104 bgr_0.PFET_GATE_10uA.t10 two_stage_opamp_dummy_magic_0.V_CMFB_S3.t2 VDDA.t103 sky130_fd_pr__pfet_01v8 ad=0.2 pd=1.4 as=0.2 ps=1.4 w=1 l=0.15
X23 two_stage_opamp_dummy_magic_0.V_CMFB_S4.t14 two_stage_opamp_dummy_magic_0.Y.t25 VDDA.t145 GNDA.t126 sky130_fd_pr__nfet_01v8 ad=0.6 pd=3.4 as=0.6 ps=3.4 w=3 l=0.15
X24 bgr_0.V_TOP.t17 VDDA.t296 sky130_fd_pr__cap_mim_m3_1 l=2 w=2
X25 VDDA.t438 bgr_0.V_mir1.t17 bgr_0.1st_Vout_1.t8 VDDA.t437 sky130_fd_pr__pfet_01v8 ad=0.2 pd=1.4 as=0.2 ps=1.4 w=1 l=0.2
X26 VOUT+.t19 two_stage_opamp_dummy_magic_0.cap_res_Y.t137 sky130_fd_pr__cap_mim_m3_1 l=2 w=2
X27 bgr_0.START_UP_NFET1.t0 bgr_0.START_UP_NFET1 GNDA.t100 GNDA.t99 sky130_fd_pr__nfet_01v8 ad=0.2 pd=1.4 as=0.4 ps=2.8 w=1 l=10
X28 two_stage_opamp_dummy_magic_0.V_b_2nd_stage.t0 a_5750_2946.t0 GNDA.t3 sky130_fd_pr__res_xhigh_po_0p35 l=2.63
X29 VOUT+.t20 two_stage_opamp_dummy_magic_0.cap_res_Y.t136 sky130_fd_pr__cap_mim_m3_1 l=2 w=2
X30 VOUT+.t21 two_stage_opamp_dummy_magic_0.cap_res_Y.t135 sky130_fd_pr__cap_mim_m3_1 l=2 w=2
X31 VOUT-.t27 two_stage_opamp_dummy_magic_0.cap_res_X.t130 sky130_fd_pr__cap_mim_m3_1 l=2 w=2
X32 VDDA.t190 two_stage_opamp_dummy_magic_0.V_err_gate.t14 two_stage_opamp_dummy_magic_0.V_err_mir_p.t12 VDDA.t189 sky130_fd_pr__pfet_01v8 ad=0.1 pd=0.9 as=0.1 ps=0.9 w=0.5 l=0.15
X33 two_stage_opamp_dummy_magic_0.VD3.t15 two_stage_opamp_dummy_magic_0.VD3.t13 two_stage_opamp_dummy_magic_0.X.t13 two_stage_opamp_dummy_magic_0.VD3.t14 sky130_fd_pr__pfet_01v8 ad=1.4 pd=7.8 as=0.7 ps=3.9 w=3.5 l=0.2
X34 VOUT-.t28 two_stage_opamp_dummy_magic_0.cap_res_X.t129 sky130_fd_pr__cap_mim_m3_1 l=2 w=2
X35 VOUT-.t29 two_stage_opamp_dummy_magic_0.cap_res_X.t128 sky130_fd_pr__cap_mim_m3_1 l=2 w=2
X36 VOUT+.t22 two_stage_opamp_dummy_magic_0.cap_res_Y.t134 sky130_fd_pr__cap_mim_m3_1 l=2 w=2
X37 bgr_0.1st_Vout_1.t13 bgr_0.cap_res1.t18 sky130_fd_pr__cap_mim_m3_1 l=2 w=2
X38 GNDA.t48 two_stage_opamp_dummy_magic_0.err_amp_mir.t9 two_stage_opamp_dummy_magic_0.err_amp_mir.t10 GNDA.t47 sky130_fd_pr__nfet_01v8 ad=0.1 pd=0.9 as=0.1 ps=0.9 w=0.5 l=0.15
X39 VOUT-.t30 two_stage_opamp_dummy_magic_0.cap_res_X.t127 sky130_fd_pr__cap_mim_m3_1 l=2 w=2
X40 bgr_0.V_mir2.t1 two_stage_opamp_dummy_magic_0.V_err_amp_ref.t8 bgr_0.V_p_2.t5 GNDA.t15 sky130_fd_pr__nfet_01v8 ad=0.1 pd=0.9 as=0.1 ps=0.9 w=0.5 l=0.2
X41 bgr_0.Vin-.t5 bgr_0.V_TOP.t18 VDDA.t295 VDDA.t294 sky130_fd_pr__pfet_01v8 ad=0.6 pd=3.4 as=0.6 ps=3.4 w=3 l=0.5
X42 GNDA.t167 bgr_0.NFET_GATE_10uA.t5 two_stage_opamp_dummy_magic_0.Vb2.t5 GNDA.t166 sky130_fd_pr__nfet_01v8 ad=0.2 pd=1.4 as=0.2 ps=1.4 w=1 l=0.15
X43 VDDA.t166 two_stage_opamp_dummy_magic_0.Vb3.t8 two_stage_opamp_dummy_magic_0.VD3.t19 VDDA.t165 sky130_fd_pr__pfet_01v8 ad=0.7 pd=3.9 as=0.7 ps=3.9 w=3.5 l=0.2
X44 GNDA.t169 bgr_0.NFET_GATE_10uA.t6 two_stage_opamp_dummy_magic_0.Vb2.t4 GNDA.t168 sky130_fd_pr__nfet_01v8 ad=0.2 pd=1.4 as=0.2 ps=1.4 w=1 l=0.15
X45 VDDA.t415 VDDA.t413 two_stage_opamp_dummy_magic_0.V_err_gate.t12 VDDA.t414 sky130_fd_pr__pfet_01v8 ad=0.2 pd=1.8 as=0.1 ps=0.9 w=0.5 l=0.15
X46 VOUT-.t31 two_stage_opamp_dummy_magic_0.cap_res_X.t126 sky130_fd_pr__cap_mim_m3_1 l=2 w=2
X47 VOUT+.t23 two_stage_opamp_dummy_magic_0.cap_res_Y.t133 sky130_fd_pr__cap_mim_m3_1 l=2 w=2
X48 two_stage_opamp_dummy_magic_0.Y.t22 GNDA.t327 GNDA.t329 GNDA.t328 sky130_fd_pr__nfet_01v8 ad=0.3 pd=1.9 as=0.6 ps=3.8 w=1.5 l=0.15
X49 two_stage_opamp_dummy_magic_0.Y.t1 two_stage_opamp_dummy_magic_0.Vb1.t6 two_stage_opamp_dummy_magic_0.VD1.t15 GNDA.t11 sky130_fd_pr__nfet_01v8 ad=0.3 pd=1.9 as=0.3 ps=1.9 w=1.5 l=0.15
X50 VOUT+.t24 two_stage_opamp_dummy_magic_0.cap_res_Y.t132 sky130_fd_pr__cap_mim_m3_1 l=2 w=2
X51 VOUT+.t25 two_stage_opamp_dummy_magic_0.cap_res_Y.t131 sky130_fd_pr__cap_mim_m3_1 l=2 w=2
X52 two_stage_opamp_dummy_magic_0.V_err_p.t15 two_stage_opamp_dummy_magic_0.V_err_gate.t15 VDDA.t443 VDDA.t442 sky130_fd_pr__pfet_01v8 ad=0.1 pd=0.9 as=0.1 ps=0.9 w=0.5 l=0.15
X53 VOUT-.t3 two_stage_opamp_dummy_magic_0.X.t27 VDDA.t19 VDDA.t18 sky130_fd_pr__pfet_01v8 ad=1.2 pd=6.4 as=1.2 ps=6.4 w=6 l=0.15
X54 bgr_0.1st_Vout_1.t1 bgr_0.Vin+.t6 bgr_0.V_p_1.t4 GNDA.t79 sky130_fd_pr__nfet_01v8 ad=0.1 pd=0.9 as=0.1 ps=0.9 w=0.5 l=0.2
X55 two_stage_opamp_dummy_magic_0.V_err_p.t16 two_stage_opamp_dummy_magic_0.V_tot.t4 two_stage_opamp_dummy_magic_0.err_amp_mir.t11 VDDA.t228 sky130_fd_pr__pfet_01v8 ad=0.1 pd=0.9 as=0.1 ps=0.9 w=0.5 l=0.15
X56 VOUT+.t26 two_stage_opamp_dummy_magic_0.cap_res_Y.t130 sky130_fd_pr__cap_mim_m3_1 l=2 w=2
X57 bgr_0.1st_Vout_2.t11 bgr_0.cap_res2.t19 sky130_fd_pr__cap_mim_m3_1 l=2 w=2
X58 VDDA.t412 VDDA.t410 bgr_0.V_TOP.t1 VDDA.t411 sky130_fd_pr__pfet_01v8 ad=0.4 pd=2.8 as=0.2 ps=1.4 w=1 l=0.2
X59 two_stage_opamp_dummy_magic_0.VD1.t16 VIN-.t0 two_stage_opamp_dummy_magic_0.V_p.t25 GNDA.t185 sky130_fd_pr__nfet_01v8 ad=0.3 pd=1.9 as=0.3 ps=1.9 w=1.5 l=0.15
X60 VOUT+.t27 two_stage_opamp_dummy_magic_0.cap_res_Y.t129 sky130_fd_pr__cap_mim_m3_1 l=2 w=2
X61 GNDA.t171 bgr_0.NFET_GATE_10uA.t7 two_stage_opamp_dummy_magic_0.Vb2.t3 GNDA.t170 sky130_fd_pr__nfet_01v8 ad=0.2 pd=1.4 as=0.2 ps=1.4 w=1 l=0.15
X62 GNDA.t326 GNDA.t324 two_stage_opamp_dummy_magic_0.Vb2.t8 GNDA.t325 sky130_fd_pr__nfet_01v8 ad=0.4 pd=2.8 as=0.2 ps=1.4 w=1 l=0.15
X63 VDDA.t129 bgr_0.V_mir1.t18 bgr_0.1st_Vout_1.t3 VDDA.t128 sky130_fd_pr__pfet_01v8 ad=0.2 pd=1.4 as=0.2 ps=1.4 w=1 l=0.2
X64 VOUT-.t32 two_stage_opamp_dummy_magic_0.cap_res_X.t125 sky130_fd_pr__cap_mim_m3_1 l=2 w=2
X65 VOUT+.t28 two_stage_opamp_dummy_magic_0.cap_res_Y.t128 sky130_fd_pr__cap_mim_m3_1 l=2 w=2
X66 two_stage_opamp_dummy_magic_0.V_err_p.t14 two_stage_opamp_dummy_magic_0.V_err_gate.t16 VDDA.t40 VDDA.t39 sky130_fd_pr__pfet_01v8 ad=0.1 pd=0.9 as=0.1 ps=0.9 w=0.5 l=0.15
X67 VOUT+.t29 two_stage_opamp_dummy_magic_0.cap_res_Y.t127 sky130_fd_pr__cap_mim_m3_1 l=2 w=2
X68 VOUT+.t30 two_stage_opamp_dummy_magic_0.cap_res_Y.t126 sky130_fd_pr__cap_mim_m3_1 l=2 w=2
X69 GNDA.t194 two_stage_opamp_dummy_magic_0.Y.t26 two_stage_opamp_dummy_magic_0.V_CMFB_S3.t13 VDDA.t226 sky130_fd_pr__pfet_01v8 ad=0.4 pd=2.4 as=0.4 ps=2.4 w=2 l=0.15
X70 VOUT-.t33 two_stage_opamp_dummy_magic_0.cap_res_X.t124 sky130_fd_pr__cap_mim_m3_1 l=2 w=2
X71 two_stage_opamp_dummy_magic_0.VD1.t0 VIN-.t1 two_stage_opamp_dummy_magic_0.V_p.t24 GNDA.t0 sky130_fd_pr__nfet_01v8 ad=0.3 pd=1.9 as=0.3 ps=1.9 w=1.5 l=0.15
X72 VDDA.t195 two_stage_opamp_dummy_magic_0.Vb3.t9 two_stage_opamp_dummy_magic_0.VD3.t20 VDDA.t194 sky130_fd_pr__pfet_01v8 ad=0.7 pd=3.9 as=0.7 ps=3.9 w=3.5 l=0.2
X73 VOUT+.t31 two_stage_opamp_dummy_magic_0.cap_res_Y.t125 sky130_fd_pr__cap_mim_m3_1 l=2 w=2
X74 two_stage_opamp_dummy_magic_0.X.t1 two_stage_opamp_dummy_magic_0.Vb2.t11 two_stage_opamp_dummy_magic_0.VD3.t3 two_stage_opamp_dummy_magic_0.VD3.t2 sky130_fd_pr__pfet_01v8 ad=0.7 pd=3.9 as=0.7 ps=3.9 w=3.5 l=0.2
X75 bgr_0.NFET_GATE_10uA.t2 bgr_0.PFET_GATE_10uA.t11 VDDA.t110 VDDA.t109 sky130_fd_pr__pfet_01v8 ad=0.2 pd=1.4 as=0.2 ps=1.4 w=1 l=0.15
X76 bgr_0.1st_Vout_2.t12 bgr_0.cap_res2.t18 sky130_fd_pr__cap_mim_m3_1 l=2 w=2
X77 VDDA.t455 bgr_0.PFET_GATE_10uA.t12 two_stage_opamp_dummy_magic_0.V_tail_gate.t9 VDDA.t454 sky130_fd_pr__pfet_01v8 ad=0.2 pd=1.4 as=0.2 ps=1.4 w=1 l=0.15
X78 VOUT-.t34 two_stage_opamp_dummy_magic_0.cap_res_X.t123 sky130_fd_pr__cap_mim_m3_1 l=2 w=2
X79 GNDA.t137 two_stage_opamp_dummy_magic_0.V_b_2nd_stage.t2 VOUT+.t3 GNDA.t136 sky130_fd_pr__nfet_01v8 ad=1.4 pd=7.4 as=1.4 ps=7.4 w=7 l=0.6
X80 VDDA.t409 VDDA.t407 bgr_0.NFET_GATE_10uA.t3 VDDA.t408 sky130_fd_pr__pfet_01v8 ad=0.4 pd=2.8 as=0.2 ps=1.4 w=1 l=0.15
X81 GNDA.t82 two_stage_opamp_dummy_magic_0.X.t28 two_stage_opamp_dummy_magic_0.V_CMFB_S1.t8 VDDA.t86 sky130_fd_pr__pfet_01v8 ad=0.4 pd=2.4 as=0.4 ps=2.4 w=2 l=0.15
X82 GNDA.t152 two_stage_opamp_dummy_magic_0.V_tail_gate.t12 two_stage_opamp_dummy_magic_0.V_p.t28 GNDA.t151 sky130_fd_pr__nfet_01v8 ad=0.5 pd=2.9 as=0.5 ps=2.9 w=2.5 l=0.15
X83 VDDA.t206 bgr_0.1st_Vout_1.t14 bgr_0.V_TOP.t5 VDDA.t205 sky130_fd_pr__pfet_01v8 ad=0.2 pd=1.4 as=0.2 ps=1.4 w=1 l=0.2
X84 VOUT+.t32 two_stage_opamp_dummy_magic_0.cap_res_Y.t124 sky130_fd_pr__cap_mim_m3_1 l=2 w=2
X85 GNDA.t323 GNDA.t321 two_stage_opamp_dummy_magic_0.VD1.t19 GNDA.t322 sky130_fd_pr__nfet_01v8 ad=0.6 pd=3.8 as=0.3 ps=1.9 w=1.5 l=0.15
X86 VOUT+.t33 two_stage_opamp_dummy_magic_0.cap_res_Y.t123 sky130_fd_pr__cap_mim_m3_1 l=2 w=2
X87 VOUT-.t35 two_stage_opamp_dummy_magic_0.cap_res_X.t122 sky130_fd_pr__cap_mim_m3_1 l=2 w=2
X88 VOUT+.t34 two_stage_opamp_dummy_magic_0.cap_res_Y.t122 sky130_fd_pr__cap_mim_m3_1 l=2 w=2
X89 VDDA.t204 bgr_0.V_mir2.t13 bgr_0.V_mir2.t14 VDDA.t203 sky130_fd_pr__pfet_01v8 ad=0.2 pd=1.4 as=0.2 ps=1.4 w=1 l=0.2
X90 GNDA.t163 bgr_0.NFET_GATE_10uA.t8 two_stage_opamp_dummy_magic_0.Vb3.t5 GNDA.t162 sky130_fd_pr__nfet_01v8 ad=0.2 pd=1.4 as=0.2 ps=1.4 w=1 l=0.15
X91 VOUT-.t36 two_stage_opamp_dummy_magic_0.cap_res_X.t121 sky130_fd_pr__cap_mim_m3_1 l=2 w=2
X92 two_stage_opamp_dummy_magic_0.Vb3.t4 bgr_0.NFET_GATE_10uA.t9 GNDA.t165 GNDA.t164 sky130_fd_pr__nfet_01v8 ad=0.2 pd=1.4 as=0.2 ps=1.4 w=1 l=0.15
X93 VOUT+.t18 two_stage_opamp_dummy_magic_0.Y.t27 VDDA.t121 VDDA.t120 sky130_fd_pr__pfet_01v8 ad=1.2 pd=6.4 as=1.2 ps=6.4 w=6 l=0.15
X94 GNDA.t320 GNDA.t318 GNDA.t320 GNDA.t319 sky130_fd_pr__nfet_01v8 ad=0.5 pd=2.9 as=0 ps=0 w=2.5 l=0.15
X95 GNDA.t317 GNDA.t315 two_stage_opamp_dummy_magic_0.VD1.t18 GNDA.t316 sky130_fd_pr__nfet_01v8 ad=0.6 pd=3.8 as=0.3 ps=1.9 w=1.5 l=0.15
X96 VDDA.t208 bgr_0.1st_Vout_1.t15 bgr_0.V_TOP.t6 VDDA.t207 sky130_fd_pr__pfet_01v8 ad=0.2 pd=1.4 as=0.2 ps=1.4 w=1 l=0.2
X97 VDDA.t67 two_stage_opamp_dummy_magic_0.V_err_gate.t17 two_stage_opamp_dummy_magic_0.V_err_p.t13 VDDA.t66 sky130_fd_pr__pfet_01v8 ad=0.1 pd=0.9 as=0.1 ps=0.9 w=0.5 l=0.15
X98 VOUT+.t35 two_stage_opamp_dummy_magic_0.cap_res_Y.t121 sky130_fd_pr__cap_mim_m3_1 l=2 w=2
X99 bgr_0.V_TOP.t4 bgr_0.cap_res1.t0 GNDA.t112 sky130_fd_pr__res_high_po_0p35 l=2.05
X100 GNDA.t314 GNDA.t312 VOUT+.t8 GNDA.t313 sky130_fd_pr__nfet_01v8 ad=2.8 pd=14.8 as=1.4 ps=7.4 w=7 l=0.6
X101 a_11220_17410.t0 GNDA.t71 GNDA.t53 sky130_fd_pr__res_xhigh_po_0p35 l=6
X102 two_stage_opamp_dummy_magic_0.V_CMFB_S2.t10 two_stage_opamp_dummy_magic_0.X.t29 VDDA.t87 GNDA.t83 sky130_fd_pr__nfet_01v8 ad=0.6 pd=3.4 as=0.6 ps=3.4 w=3 l=0.15
X103 two_stage_opamp_dummy_magic_0.X.t17 two_stage_opamp_dummy_magic_0.Vb2.t12 two_stage_opamp_dummy_magic_0.VD3.t27 two_stage_opamp_dummy_magic_0.VD3.t26 sky130_fd_pr__pfet_01v8 ad=0.7 pd=3.9 as=0.7 ps=3.9 w=3.5 l=0.2
X104 two_stage_opamp_dummy_magic_0.Vb1.t1 bgr_0.PFET_GATE_10uA.t13 VDDA.t27 VDDA.t26 sky130_fd_pr__pfet_01v8 ad=0.2 pd=1.4 as=0.2 ps=1.4 w=1 l=0.15
X105 GNDA.t311 GNDA.t309 two_stage_opamp_dummy_magic_0.X.t21 GNDA.t310 sky130_fd_pr__nfet_01v8 ad=0.6 pd=3.8 as=0.3 ps=1.9 w=1.5 l=0.15
X106 two_stage_opamp_dummy_magic_0.V_err_mir_p.t13 two_stage_opamp_dummy_magic_0.V_err_gate.t18 VDDA.t192 VDDA.t191 sky130_fd_pr__pfet_01v8 ad=0.1 pd=0.9 as=0.1 ps=0.9 w=0.5 l=0.15
X107 VOUT-.t7 two_stage_opamp_dummy_magic_0.X.t30 VDDA.t94 VDDA.t93 sky130_fd_pr__pfet_01v8 ad=1.2 pd=6.4 as=1.2 ps=6.4 w=6 l=0.15
X108 VOUT+.t36 two_stage_opamp_dummy_magic_0.cap_res_Y.t120 sky130_fd_pr__cap_mim_m3_1 l=2 w=2
X109 bgr_0.PFET_GATE_10uA.t5 bgr_0.1st_Vout_2.t13 VDDA.t246 VDDA.t245 sky130_fd_pr__pfet_01v8 ad=0.2 pd=1.4 as=0.2 ps=1.4 w=1 l=0.2
X110 VOUT+.t37 two_stage_opamp_dummy_magic_0.cap_res_Y.t119 sky130_fd_pr__cap_mim_m3_1 l=2 w=2
X111 VOUT+.t38 two_stage_opamp_dummy_magic_0.cap_res_Y.t118 sky130_fd_pr__cap_mim_m3_1 l=2 w=2
X112 VOUT+.t39 two_stage_opamp_dummy_magic_0.cap_res_Y.t117 sky130_fd_pr__cap_mim_m3_1 l=2 w=2
X113 VOUT+.t40 two_stage_opamp_dummy_magic_0.cap_res_Y.t116 sky130_fd_pr__cap_mim_m3_1 l=2 w=2
X114 a_14640_5738.t0 two_stage_opamp_dummy_magic_0.V_tot.t2 GNDA.t69 sky130_fd_pr__res_xhigh_po_0p35 l=1.75
X115 VOUT-.t37 two_stage_opamp_dummy_magic_0.cap_res_X.t120 sky130_fd_pr__cap_mim_m3_1 l=2 w=2
X116 VOUT-.t38 two_stage_opamp_dummy_magic_0.cap_res_X.t119 sky130_fd_pr__cap_mim_m3_1 l=2 w=2
X117 VDDA.t23 bgr_0.V_mir1.t10 bgr_0.V_mir1.t11 VDDA.t22 sky130_fd_pr__pfet_01v8 ad=0.2 pd=1.4 as=0.2 ps=1.4 w=1 l=0.2
X118 VOUT-.t39 two_stage_opamp_dummy_magic_0.cap_res_X.t118 sky130_fd_pr__cap_mim_m3_1 l=2 w=2
X119 VDDA.t406 VDDA.t404 two_stage_opamp_dummy_magic_0.VD3.t32 VDDA.t405 sky130_fd_pr__pfet_01v8 ad=1.4 pd=7.8 as=0.7 ps=3.9 w=3.5 l=0.2
X120 VOUT-.t40 two_stage_opamp_dummy_magic_0.cap_res_X.t117 sky130_fd_pr__cap_mim_m3_1 l=2 w=2
X121 GNDA.t186 two_stage_opamp_dummy_magic_0.Y.t28 two_stage_opamp_dummy_magic_0.V_CMFB_S3.t10 VDDA.t216 sky130_fd_pr__pfet_01v8 ad=0.4 pd=2.4 as=0.4 ps=2.4 w=2 l=0.15
X122 VOUT-.t41 two_stage_opamp_dummy_magic_0.cap_res_X.t116 sky130_fd_pr__cap_mim_m3_1 l=2 w=2
X123 bgr_0.1st_Vout_1.t16 bgr_0.cap_res1.t17 sky130_fd_pr__cap_mim_m3_1 l=2 w=2
X124 VDDA.t29 bgr_0.1st_Vout_2.t14 bgr_0.PFET_GATE_10uA.t1 VDDA.t28 sky130_fd_pr__pfet_01v8 ad=0.2 pd=1.4 as=0.2 ps=1.4 w=1 l=0.2
X125 bgr_0.V_TOP.t19 VDDA.t293 sky130_fd_pr__cap_mim_m3_1 l=2 w=2
X126 VDDA.t95 two_stage_opamp_dummy_magic_0.X.t31 two_stage_opamp_dummy_magic_0.V_CMFB_S2.t9 GNDA.t85 sky130_fd_pr__nfet_01v8 ad=0.6 pd=3.4 as=0.6 ps=3.4 w=3 l=0.15
X127 two_stage_opamp_dummy_magic_0.VD4.t21 two_stage_opamp_dummy_magic_0.Vb2.t13 two_stage_opamp_dummy_magic_0.Y.t8 two_stage_opamp_dummy_magic_0.VD4.t20 sky130_fd_pr__pfet_01v8 ad=0.7 pd=3.9 as=0.7 ps=3.9 w=3.5 l=0.2
X128 VOUT+.t41 two_stage_opamp_dummy_magic_0.cap_res_Y.t115 sky130_fd_pr__cap_mim_m3_1 l=2 w=2
X129 bgr_0.1st_Vout_1.t17 bgr_0.cap_res1.t16 sky130_fd_pr__cap_mim_m3_1 l=2 w=2
X130 GNDA.t308 GNDA.t306 two_stage_opamp_dummy_magic_0.Y.t21 GNDA.t307 sky130_fd_pr__nfet_01v8 ad=0.6 pd=3.8 as=0.3 ps=1.9 w=1.5 l=0.15
X131 GNDA.t129 two_stage_opamp_dummy_magic_0.X.t32 two_stage_opamp_dummy_magic_0.V_CMFB_S1.t7 VDDA.t152 sky130_fd_pr__pfet_01v8 ad=0.4 pd=2.4 as=0.4 ps=2.4 w=2 l=0.15
X132 VOUT+.t42 two_stage_opamp_dummy_magic_0.cap_res_Y.t114 sky130_fd_pr__cap_mim_m3_1 l=2 w=2
X133 GNDA.t144 two_stage_opamp_dummy_magic_0.V_tail_gate.t13 two_stage_opamp_dummy_magic_0.V_p.t27 GNDA.t143 sky130_fd_pr__nfet_01v8 ad=0.5 pd=2.9 as=0.5 ps=2.9 w=2.5 l=0.15
X134 GNDA.t130 two_stage_opamp_dummy_magic_0.X.t33 two_stage_opamp_dummy_magic_0.V_CMFB_S1.t6 VDDA.t153 sky130_fd_pr__pfet_01v8 ad=0.4 pd=2.4 as=0.4 ps=2.4 w=2 l=0.15
X135 two_stage_opamp_dummy_magic_0.X.t23 two_stage_opamp_dummy_magic_0.Vb1.t7 two_stage_opamp_dummy_magic_0.VD2.t20 GNDA.t349 sky130_fd_pr__nfet_01v8 ad=0.3 pd=1.9 as=0.3 ps=1.9 w=1.5 l=0.15
X136 two_stage_opamp_dummy_magic_0.V_CMFB_S2.t14 GNDA.t303 GNDA.t305 GNDA.t304 sky130_fd_pr__nfet_01v8 ad=0.2 pd=1.4 as=0.4 ps=2.8 w=1 l=0.15
X137 VOUT+.t43 two_stage_opamp_dummy_magic_0.cap_res_Y.t113 sky130_fd_pr__cap_mim_m3_1 l=2 w=2
X138 VOUT-.t42 two_stage_opamp_dummy_magic_0.cap_res_X.t115 sky130_fd_pr__cap_mim_m3_1 l=2 w=2
X139 two_stage_opamp_dummy_magic_0.V_p.t3 VIN+.t0 two_stage_opamp_dummy_magic_0.VD2.t1 GNDA.t21 sky130_fd_pr__nfet_01v8 ad=0.3 pd=1.9 as=0.3 ps=1.9 w=1.5 l=0.15
X140 VOUT+.t44 two_stage_opamp_dummy_magic_0.cap_res_Y.t112 sky130_fd_pr__cap_mim_m3_1 l=2 w=2
X141 VDDA.t97 bgr_0.V_mir2.t17 bgr_0.1st_Vout_2.t7 VDDA.t96 sky130_fd_pr__pfet_01v8 ad=0.2 pd=1.4 as=0.2 ps=1.4 w=1 l=0.2
X142 VOUT-.t12 a_5750_2946.t1 GNDA.t142 sky130_fd_pr__res_xhigh_po_0p35 l=2.63
X143 VOUT-.t43 two_stage_opamp_dummy_magic_0.cap_res_X.t114 sky130_fd_pr__cap_mim_m3_1 l=2 w=2
X144 VOUT-.t44 two_stage_opamp_dummy_magic_0.cap_res_X.t113 sky130_fd_pr__cap_mim_m3_1 l=2 w=2
X145 bgr_0.1st_Vout_1.t18 bgr_0.cap_res1.t15 sky130_fd_pr__cap_mim_m3_1 l=2 w=2
X146 a_13730_17020.t0 two_stage_opamp_dummy_magic_0.V_err_amp_ref.t0 GNDA.t33 sky130_fd_pr__res_xhigh_po_0p35 l=6.3
X147 VOUT+.t17 two_stage_opamp_dummy_magic_0.Y.t29 VDDA.t157 VDDA.t156 sky130_fd_pr__pfet_01v8 ad=1.2 pd=6.4 as=1.2 ps=6.4 w=6 l=0.15
X148 two_stage_opamp_dummy_magic_0.V_p.t0 two_stage_opamp_dummy_magic_0.V_tail_gate.t14 GNDA.t5 GNDA.t4 sky130_fd_pr__nfet_01v8 ad=0.5 pd=2.9 as=0.5 ps=2.9 w=2.5 l=0.15
X149 two_stage_opamp_dummy_magic_0.V_p.t4 VIN+.t1 two_stage_opamp_dummy_magic_0.VD2.t2 GNDA.t35 sky130_fd_pr__nfet_01v8 ad=0.3 pd=1.9 as=0.3 ps=1.9 w=1.5 l=0.15
X150 VOUT+.t45 two_stage_opamp_dummy_magic_0.cap_res_Y.t111 sky130_fd_pr__cap_mim_m3_1 l=2 w=2
X151 bgr_0.V_CUR_REF_REG.t2 VDDA.t401 VDDA.t403 VDDA.t402 sky130_fd_pr__pfet_01v8 ad=0.2 pd=1.4 as=0.4 ps=2.8 w=1 l=0.15
X152 a_11220_17410.t1 a_12828_17530.t0 GNDA.t53 sky130_fd_pr__res_xhigh_po_0p35 l=6
X153 VOUT+.t46 two_stage_opamp_dummy_magic_0.cap_res_Y.t110 sky130_fd_pr__cap_mim_m3_1 l=2 w=2
X154 two_stage_opamp_dummy_magic_0.VD3.t35 two_stage_opamp_dummy_magic_0.Vb3.t10 VDDA.t421 VDDA.t420 sky130_fd_pr__pfet_01v8 ad=0.7 pd=3.9 as=0.7 ps=3.9 w=3.5 l=0.2
X155 VOUT-.t45 two_stage_opamp_dummy_magic_0.cap_res_X.t112 sky130_fd_pr__cap_mim_m3_1 l=2 w=2
X156 two_stage_opamp_dummy_magic_0.V_tail_gate.t8 bgr_0.PFET_GATE_10uA.t14 VDDA.t178 VDDA.t177 sky130_fd_pr__pfet_01v8 ad=0.2 pd=1.4 as=0.2 ps=1.4 w=1 l=0.15
X157 VOUT+.t47 two_stage_opamp_dummy_magic_0.cap_res_Y.t109 sky130_fd_pr__cap_mim_m3_1 l=2 w=2
X158 VOUT+.t48 two_stage_opamp_dummy_magic_0.cap_res_Y.t108 sky130_fd_pr__cap_mim_m3_1 l=2 w=2
X159 VDDA.t213 bgr_0.PFET_GATE_10uA.t15 bgr_0.V_CUR_REF_REG.t1 VDDA.t212 sky130_fd_pr__pfet_01v8 ad=0.2 pd=1.4 as=0.2 ps=1.4 w=1 l=0.15
X160 VOUT+.t49 two_stage_opamp_dummy_magic_0.cap_res_Y.t107 sky130_fd_pr__cap_mim_m3_1 l=2 w=2
X161 bgr_0.PFET_GATE_10uA.t3 bgr_0.cap_res2.t20 GNDA.t112 sky130_fd_pr__res_high_po_0p35 l=2.05
X162 VOUT+.t7 GNDA.t300 GNDA.t302 GNDA.t301 sky130_fd_pr__nfet_01v8 ad=1.4 pd=7.4 as=2.8 ps=14.8 w=7 l=0.6
X163 bgr_0.V_p_1.t9 bgr_0.Vin-.t8 bgr_0.V_mir1.t16 GNDA.t225 sky130_fd_pr__nfet_01v8 ad=0.1 pd=0.9 as=0.1 ps=0.9 w=0.5 l=0.2
X164 VDDA.t1 bgr_0.V_mir1.t8 bgr_0.V_mir1.t9 VDDA.t0 sky130_fd_pr__pfet_01v8 ad=0.2 pd=1.4 as=0.2 ps=1.4 w=1 l=0.2
X165 VOUT+.t50 two_stage_opamp_dummy_magic_0.cap_res_Y.t106 sky130_fd_pr__cap_mim_m3_1 l=2 w=2
X166 VOUT+.t51 two_stage_opamp_dummy_magic_0.cap_res_Y.t105 sky130_fd_pr__cap_mim_m3_1 l=2 w=2
X167 two_stage_opamp_dummy_magic_0.VD2.t16 two_stage_opamp_dummy_magic_0.Vb1.t8 two_stage_opamp_dummy_magic_0.X.t19 GNDA.t212 sky130_fd_pr__nfet_01v8 ad=0.3 pd=1.9 as=0.3 ps=1.9 w=1.5 l=0.15
X168 bgr_0.1st_Vout_2.t15 bgr_0.cap_res2.t17 sky130_fd_pr__cap_mim_m3_1 l=2 w=2
X169 VOUT-.t46 two_stage_opamp_dummy_magic_0.cap_res_X.t111 sky130_fd_pr__cap_mim_m3_1 l=2 w=2
X170 VOUT-.t47 two_stage_opamp_dummy_magic_0.cap_res_X.t110 sky130_fd_pr__cap_mim_m3_1 l=2 w=2
X171 VDDA.t417 bgr_0.1st_Vout_1.t19 bgr_0.V_TOP.t11 VDDA.t416 sky130_fd_pr__pfet_01v8 ad=0.2 pd=1.4 as=0.2 ps=1.4 w=1 l=0.2
X172 VOUT-.t10 two_stage_opamp_dummy_magic_0.X.t34 VDDA.t168 VDDA.t167 sky130_fd_pr__pfet_01v8 ad=1.2 pd=6.4 as=1.2 ps=6.4 w=6 l=0.15
X173 VDDA.t292 bgr_0.V_TOP.t20 two_stage_opamp_dummy_magic_0.V_err_amp_ref.t4 VDDA.t291 sky130_fd_pr__pfet_01v8 ad=0.6 pd=3.4 as=0.6 ps=3.4 w=3 l=0.5
X174 VOUT-.t11 two_stage_opamp_dummy_magic_0.X.t35 VDDA.t170 VDDA.t169 sky130_fd_pr__pfet_01v8 ad=1.2 pd=6.4 as=1.2 ps=6.4 w=6 l=0.15
X175 VDDA.t227 two_stage_opamp_dummy_magic_0.Y.t30 two_stage_opamp_dummy_magic_0.V_CMFB_S4.t13 GNDA.t195 sky130_fd_pr__nfet_01v8 ad=0.6 pd=3.4 as=0.6 ps=3.4 w=3 l=0.15
X176 VOUT-.t48 two_stage_opamp_dummy_magic_0.cap_res_X.t109 sky130_fd_pr__cap_mim_m3_1 l=2 w=2
X177 VOUT-.t49 two_stage_opamp_dummy_magic_0.cap_res_X.t108 sky130_fd_pr__cap_mim_m3_1 l=2 w=2
X178 bgr_0.V_p_2.t8 bgr_0.V_CUR_REF_REG.t3 bgr_0.1st_Vout_2.t9 GNDA.t216 sky130_fd_pr__nfet_01v8 ad=0.1 pd=0.9 as=0.1 ps=0.9 w=0.5 l=0.2
X179 VOUT-.t9 two_stage_opamp_dummy_magic_0.V_b_2nd_stage.t3 GNDA.t132 GNDA.t131 sky130_fd_pr__nfet_01v8 ad=1.4 pd=7.4 as=1.4 ps=7.4 w=7 l=0.6
X180 two_stage_opamp_dummy_magic_0.cap_res_X.t0 two_stage_opamp_dummy_magic_0.X.t11 GNDA.t111 sky130_fd_pr__res_high_po_1p41 l=1.41
X181 VOUT-.t50 two_stage_opamp_dummy_magic_0.cap_res_X.t107 sky130_fd_pr__cap_mim_m3_1 l=2 w=2
X182 GNDA.t191 two_stage_opamp_dummy_magic_0.Y.t31 two_stage_opamp_dummy_magic_0.V_CMFB_S3.t12 VDDA.t225 sky130_fd_pr__pfet_01v8 ad=0.4 pd=2.4 as=0.4 ps=2.4 w=2 l=0.15
X183 VOUT+.t52 two_stage_opamp_dummy_magic_0.cap_res_Y.t104 sky130_fd_pr__cap_mim_m3_1 l=2 w=2
X184 two_stage_opamp_dummy_magic_0.VD3.t30 two_stage_opamp_dummy_magic_0.Vb3.t11 VDDA.t243 VDDA.t242 sky130_fd_pr__pfet_01v8 ad=0.7 pd=3.9 as=0.7 ps=3.9 w=3.5 l=0.2
X185 VOUT+.t53 two_stage_opamp_dummy_magic_0.cap_res_Y.t103 sky130_fd_pr__cap_mim_m3_1 l=2 w=2
X186 bgr_0.V_p_1.t8 bgr_0.Vin-.t9 bgr_0.V_mir1.t13 GNDA.t224 sky130_fd_pr__nfet_01v8 ad=0.1 pd=0.9 as=0.1 ps=0.9 w=0.5 l=0.2
X187 two_stage_opamp_dummy_magic_0.VD3.t29 two_stage_opamp_dummy_magic_0.Vb2.t14 two_stage_opamp_dummy_magic_0.X.t18 two_stage_opamp_dummy_magic_0.VD3.t28 sky130_fd_pr__pfet_01v8 ad=0.7 pd=3.9 as=0.7 ps=3.9 w=3.5 l=0.2
X188 bgr_0.1st_Vout_2.t16 bgr_0.cap_res2.t16 sky130_fd_pr__cap_mim_m3_1 l=2 w=2
X189 two_stage_opamp_dummy_magic_0.err_amp_out.t9 two_stage_opamp_dummy_magic_0.err_amp_mir.t17 GNDA.t59 GNDA.t58 sky130_fd_pr__nfet_01v8 ad=0.1 pd=0.9 as=0.1 ps=0.9 w=0.5 l=0.15
X190 bgr_0.V_TOP.t13 VDDA.t398 VDDA.t400 VDDA.t399 sky130_fd_pr__pfet_01v8 ad=0.2 pd=1.4 as=0.4 ps=2.8 w=1 l=0.15
X191 VDDA.t79 two_stage_opamp_dummy_magic_0.X.t36 two_stage_opamp_dummy_magic_0.V_CMFB_S2.t8 GNDA.t77 sky130_fd_pr__nfet_01v8 ad=0.6 pd=3.4 as=0.6 ps=3.4 w=3 l=0.15
X192 VOUT-.t51 two_stage_opamp_dummy_magic_0.cap_res_X.t106 sky130_fd_pr__cap_mim_m3_1 l=2 w=2
X193 bgr_0.Vin-.t1 bgr_0.START_UP.t6 bgr_0.V_TOP.t3 VDDA.t193 sky130_fd_pr__pfet_01v8 ad=0.2 pd=1.4 as=0.2 ps=1.4 w=1 l=0.15
X194 two_stage_opamp_dummy_magic_0.VD1.t14 two_stage_opamp_dummy_magic_0.Vb1.t9 two_stage_opamp_dummy_magic_0.Y.t20 GNDA.t235 sky130_fd_pr__nfet_01v8 ad=0.3 pd=1.9 as=0.3 ps=1.9 w=1.5 l=0.15
X195 VOUT-.t52 two_stage_opamp_dummy_magic_0.cap_res_X.t105 sky130_fd_pr__cap_mim_m3_1 l=2 w=2
X196 VOUT+.t54 two_stage_opamp_dummy_magic_0.cap_res_Y.t102 sky130_fd_pr__cap_mim_m3_1 l=2 w=2
X197 bgr_0.1st_Vout_1.t20 bgr_0.cap_res1.t14 sky130_fd_pr__cap_mim_m3_1 l=2 w=2
X198 bgr_0.V_TOP.t21 VDDA.t282 sky130_fd_pr__cap_mim_m3_1 l=2 w=2
X199 VDDA.t397 VDDA.t395 two_stage_opamp_dummy_magic_0.V_err_p.t18 VDDA.t396 sky130_fd_pr__pfet_01v8 ad=0.2 pd=1.8 as=0.1 ps=0.9 w=0.5 l=0.15
X200 VOUT-.t53 two_stage_opamp_dummy_magic_0.cap_res_X.t104 sky130_fd_pr__cap_mim_m3_1 l=2 w=2
X201 VOUT-.t54 two_stage_opamp_dummy_magic_0.cap_res_X.t103 sky130_fd_pr__cap_mim_m3_1 l=2 w=2
X202 VOUT-.t55 two_stage_opamp_dummy_magic_0.cap_res_X.t102 sky130_fd_pr__cap_mim_m3_1 l=2 w=2
X203 GNDA.t351 two_stage_opamp_dummy_magic_0.V_tail_gate.t15 two_stage_opamp_dummy_magic_0.V_p.t40 GNDA.t350 sky130_fd_pr__nfet_01v8 ad=0.5 pd=2.9 as=0.5 ps=2.9 w=2.5 l=0.15
X204 two_stage_opamp_dummy_magic_0.err_amp_out.t4 two_stage_opamp_dummy_magic_0.V_err_amp_ref.t9 two_stage_opamp_dummy_magic_0.V_err_p.t2 VDDA.t7 sky130_fd_pr__pfet_01v8 ad=0.1 pd=0.9 as=0.1 ps=0.9 w=0.5 l=0.15
X205 GNDA.t78 two_stage_opamp_dummy_magic_0.X.t37 two_stage_opamp_dummy_magic_0.V_CMFB_S1.t5 VDDA.t80 sky130_fd_pr__pfet_01v8 ad=0.4 pd=2.4 as=0.4 ps=2.4 w=2 l=0.15
X206 a_5230_5738.t1 two_stage_opamp_dummy_magic_0.V_tot.t1 GNDA.t32 sky130_fd_pr__res_xhigh_po_0p35 l=1.75
X207 a_13730_17020.t1 GNDA.t98 GNDA.t33 sky130_fd_pr__res_xhigh_po_0p35 l=6.3
X208 bgr_0.1st_Vout_1.t21 bgr_0.cap_res1.t13 sky130_fd_pr__cap_mim_m3_1 l=2 w=2
X209 bgr_0.V_TOP.t22 VDDA.t281 sky130_fd_pr__cap_mim_m3_1 l=2 w=2
X210 two_stage_opamp_dummy_magic_0.V_err_amp_ref.t6 VDDA.t392 VDDA.t394 VDDA.t393 sky130_fd_pr__pfet_01v8 ad=0.6 pd=3.4 as=1.2 ps=6.8 w=3 l=0.5
X211 a_11220_17290.t1 a_12828_17650.t1 GNDA.t53 sky130_fd_pr__res_xhigh_po_0p35 l=6
X212 VOUT+.t55 two_stage_opamp_dummy_magic_0.cap_res_Y.t101 sky130_fd_pr__cap_mim_m3_1 l=2 w=2
X213 VOUT+.t56 two_stage_opamp_dummy_magic_0.cap_res_Y.t100 sky130_fd_pr__cap_mim_m3_1 l=2 w=2
X214 VOUT+.t57 two_stage_opamp_dummy_magic_0.cap_res_Y.t99 sky130_fd_pr__cap_mim_m3_1 l=2 w=2
X215 VOUT-.t56 two_stage_opamp_dummy_magic_0.cap_res_X.t101 sky130_fd_pr__cap_mim_m3_1 l=2 w=2
X216 bgr_0.V_p_2.t6 bgr_0.V_CUR_REF_REG.t4 bgr_0.1st_Vout_2.t1 GNDA.t138 sky130_fd_pr__nfet_01v8 ad=0.1 pd=0.9 as=0.2 ps=1.8 w=0.5 l=0.2
X217 two_stage_opamp_dummy_magic_0.V_CMFB_S1.t12 bgr_0.PFET_GATE_10uA.t16 VDDA.t202 VDDA.t201 sky130_fd_pr__pfet_01v8 ad=0.2 pd=1.4 as=0.2 ps=1.4 w=1 l=0.15
X218 VOUT+.t58 two_stage_opamp_dummy_magic_0.cap_res_Y.t98 sky130_fd_pr__cap_mim_m3_1 l=2 w=2
X219 VDDA.t453 bgr_0.PFET_GATE_10uA.t17 two_stage_opamp_dummy_magic_0.V_CMFB_S1.t16 VDDA.t452 sky130_fd_pr__pfet_01v8 ad=0.2 pd=1.4 as=0.2 ps=1.4 w=1 l=0.15
X220 two_stage_opamp_dummy_magic_0.V_p.t15 VIN+.t2 two_stage_opamp_dummy_magic_0.VD2.t11 GNDA.t93 sky130_fd_pr__nfet_01v8 ad=0.3 pd=1.9 as=0.3 ps=1.9 w=1.5 l=0.15
X221 VOUT-.t57 two_stage_opamp_dummy_magic_0.cap_res_X.t100 sky130_fd_pr__cap_mim_m3_1 l=2 w=2
X222 two_stage_opamp_dummy_magic_0.V_p.t39 two_stage_opamp_dummy_magic_0.V_tail_gate.t16 GNDA.t343 GNDA.t342 sky130_fd_pr__nfet_01v8 ad=0.5 pd=2.9 as=0.5 ps=2.9 w=2.5 l=0.15
X223 VDDA.t182 two_stage_opamp_dummy_magic_0.Vb3.t12 two_stage_opamp_dummy_magic_0.VD4.t37 VDDA.t181 sky130_fd_pr__pfet_01v8 ad=0.7 pd=3.9 as=0.7 ps=3.9 w=3.5 l=0.2
X224 VOUT+.t16 two_stage_opamp_dummy_magic_0.Y.t32 VDDA.t133 VDDA.t132 sky130_fd_pr__pfet_01v8 ad=1.2 pd=6.4 as=1.2 ps=6.4 w=6 l=0.15
X225 a_11220_17290.t0 GNDA.t119 GNDA.t53 sky130_fd_pr__res_xhigh_po_0p35 l=6
X226 two_stage_opamp_dummy_magic_0.Y.t3 two_stage_opamp_dummy_magic_0.VD4.t25 two_stage_opamp_dummy_magic_0.VD4.t27 two_stage_opamp_dummy_magic_0.VD4.t26 sky130_fd_pr__pfet_01v8 ad=0.7 pd=3.9 as=1.4 ps=7.8 w=3.5 l=0.2
X227 two_stage_opamp_dummy_magic_0.V_p.t23 VIN-.t2 two_stage_opamp_dummy_magic_0.VD1.t20 GNDA.t344 sky130_fd_pr__nfet_01v8 ad=0.3 pd=1.9 as=0.3 ps=1.9 w=1.5 l=0.15
X228 two_stage_opamp_dummy_magic_0.V_tail_gate.t11 GNDA.t297 GNDA.t299 GNDA.t298 sky130_fd_pr__nfet_01v8 ad=0.3 pd=1.9 as=0.6 ps=3.8 w=1.5 l=0.15
X229 bgr_0.1st_Vout_1.t22 bgr_0.cap_res1.t12 sky130_fd_pr__cap_mim_m3_1 l=2 w=2
X230 VOUT-.t58 two_stage_opamp_dummy_magic_0.cap_res_X.t99 sky130_fd_pr__cap_mim_m3_1 l=2 w=2
X231 bgr_0.START_UP.t3 bgr_0.V_TOP.t23 VDDA.t290 VDDA.t289 sky130_fd_pr__pfet_01v8 ad=0.6 pd=3.4 as=0.6 ps=3.4 w=3 l=0.5
X232 bgr_0.1st_Vout_2.t6 bgr_0.V_mir2.t18 VDDA.t112 VDDA.t111 sky130_fd_pr__pfet_01v8 ad=0.2 pd=1.4 as=0.2 ps=1.4 w=1 l=0.2
X233 bgr_0.V_TOP.t24 VDDA.t288 sky130_fd_pr__cap_mim_m3_1 l=2 w=2
X234 two_stage_opamp_dummy_magic_0.V_err_mir_p.t8 two_stage_opamp_dummy_magic_0.V_err_amp_ref.t10 two_stage_opamp_dummy_magic_0.V_err_gate.t3 VDDA.t198 sky130_fd_pr__pfet_01v8 ad=0.1 pd=0.9 as=0.1 ps=0.9 w=0.5 l=0.15
X235 VOUT-.t59 two_stage_opamp_dummy_magic_0.cap_res_X.t98 sky130_fd_pr__cap_mim_m3_1 l=2 w=2
X236 VOUT-.t60 two_stage_opamp_dummy_magic_0.cap_res_X.t97 sky130_fd_pr__cap_mim_m3_1 l=2 w=2
X237 VOUT+.t59 two_stage_opamp_dummy_magic_0.cap_res_Y.t97 sky130_fd_pr__cap_mim_m3_1 l=2 w=2
X238 VOUT+.t60 two_stage_opamp_dummy_magic_0.cap_res_Y.t96 sky130_fd_pr__cap_mim_m3_1 l=2 w=2
X239 VDDA.t125 bgr_0.V_mir1.t19 bgr_0.1st_Vout_1.t2 VDDA.t124 sky130_fd_pr__pfet_01v8 ad=0.2 pd=1.4 as=0.2 ps=1.4 w=1 l=0.2
X240 two_stage_opamp_dummy_magic_0.VD2.t10 two_stage_opamp_dummy_magic_0.Vb1.t10 two_stage_opamp_dummy_magic_0.X.t9 GNDA.t92 sky130_fd_pr__nfet_01v8 ad=0.3 pd=1.9 as=0.3 ps=1.9 w=1.5 l=0.15
X241 VOUT-.t61 two_stage_opamp_dummy_magic_0.cap_res_X.t96 sky130_fd_pr__cap_mim_m3_1 l=2 w=2
X242 a_14520_5738.t0 two_stage_opamp_dummy_magic_0.V_tot.t3 GNDA.t110 sky130_fd_pr__res_xhigh_po_0p35 l=1.75