* PEX produced on Wed Jul 16 04:55:32 PM CEST 2025 using /foss/tools/osic-multitool/iic-pex.sh with m=3 and s=1
* NGSPICE file created from bgr_opamp_dummy_magic_13.ext - technology: sky130A

.subckt bgr_opamp_dummy_magic_13 VDDA GNDA VOUT+ VOUT- VIN+ VIN-
X0 GNDA.t192 bgr_9_0.NFET_GATE_10uA.t5 two_stage_opamp_dummy_magic_19_0.Vb3.t6 GNDA.t191 sky130_fd_pr__nfet_01v8 ad=0.2 pd=1.4 as=0.2 ps=1.4 w=1 l=0.15
X1 bgr_9_0.V_TOP.t11 VDDA.t354 VDDA.t356 VDDA.t355 sky130_fd_pr__pfet_01v8 ad=0.2 pd=1.4 as=0.45 ps=2.9 w=1 l=0.15
X2 VOUT-.t19 two_stage_opamp_dummy_magic_19_0.cap_res_X.t137 sky130_fd_pr__cap_mim_m3_1 l=2 w=2
X3 two_stage_opamp_dummy_magic_19_0.err_amp_mir.t3 GNDA.t287 GNDA.t288 GNDA.t15 sky130_fd_pr__nfet_01v8 ad=0.5 pd=2.9 as=1 ps=5.8 w=2.5 l=0.15
X4 GNDA.t115 two_stage_opamp_dummy_magic_19_0.V_tail_gate.t8 two_stage_opamp_dummy_magic_19_0.V_source.t37 GNDA.t114 sky130_fd_pr__nfet_01v8 ad=0.5 pd=2.9 as=0.5 ps=2.9 w=2.5 l=0.15
X5 VOUT+.t19 two_stage_opamp_dummy_magic_19_0.cap_res_Y.t137 sky130_fd_pr__cap_mim_m3_1 l=2 w=2
X6 VOUT+.t14 GNDA.t284 GNDA.t286 GNDA.t285 sky130_fd_pr__nfet_01v8 ad=1.4 pd=7.4 as=2.8 ps=14.8 w=7 l=0.6
X7 VDDA.t101 two_stage_opamp_dummy_magic_19_0.X.t25 two_stage_opamp_dummy_magic_19_0.V_CMFB_S2.t9 GNDA.t83 sky130_fd_pr__nfet_01v8 ad=0.6 pd=3.4 as=0.6 ps=3.4 w=3 l=0.15
X8 VOUT+.t20 two_stage_opamp_dummy_magic_19_0.cap_res_Y.t136 sky130_fd_pr__cap_mim_m3_1 l=2 w=2
X9 VDDA.t82 bgr_9_0.V_TOP.t14 two_stage_opamp_dummy_magic_19_0.V_err_amp_ref.t6 VDDA.t81 sky130_fd_pr__pfet_01v8 ad=0.6 pd=3.4 as=0.6 ps=3.4 w=3 l=0.5
X10 VDDA.t353 VDDA.t351 two_stage_opamp_dummy_magic_19_0.err_amp_out.t3 VDDA.t352 sky130_fd_pr__pfet_01v8 ad=1 pd=5.8 as=0.5 ps=2.9 w=2.5 l=0.15
X11 VOUT+.t21 two_stage_opamp_dummy_magic_19_0.cap_res_Y.t135 sky130_fd_pr__cap_mim_m3_1 l=2 w=2
X12 GNDA.t283 GNDA.t281 VDDA.t240 GNDA.t282 sky130_fd_pr__nfet_01v8 ad=1.2 pd=6.8 as=0.6 ps=3.4 w=3 l=0.15
X13 bgr_9_0.Vin+.t5 bgr_9_0.V_TOP.t15 VDDA.t84 VDDA.t83 sky130_fd_pr__pfet_01v8 ad=0.6 pd=3.4 as=0.6 ps=3.4 w=3 l=0.5
X14 two_stage_opamp_dummy_magic_19_0.V_CMFB_S1.t12 two_stage_opamp_dummy_magic_19_0.X.t26 GNDA.t84 VDDA.t102 sky130_fd_pr__pfet_01v8 ad=0.4 pd=2.4 as=0.4 ps=2.4 w=2 l=0.15
X15 VDDA.t146 bgr_9_0.V_mir1.t17 bgr_9_0.1st_Vout_1.t5 VDDA.t145 sky130_fd_pr__pfet_01v8 ad=0.2 pd=1.4 as=0.2 ps=1.4 w=1 l=0.2
X16 VOUT+.t22 two_stage_opamp_dummy_magic_19_0.cap_res_Y.t134 sky130_fd_pr__cap_mim_m3_1 l=2 w=2
X17 bgr_9_0.1st_Vout_2.t11 bgr_9_0.cap_res2.t19 sky130_fd_pr__cap_mim_m3_1 l=2 w=2
X18 two_stage_opamp_dummy_magic_19_0.X.t3 two_stage_opamp_dummy_magic_19_0.Vb2.t11 two_stage_opamp_dummy_magic_19_0.VD3.t19 two_stage_opamp_dummy_magic_19_0.VD3.t18 sky130_fd_pr__pfet_01v8 ad=0.7 pd=3.9 as=0.7 ps=3.9 w=3.5 l=0.2
X19 GNDA.t37 two_stage_opamp_dummy_magic_19_0.Y.t25 two_stage_opamp_dummy_magic_19_0.V_CMFB_S3.t12 VDDA.t37 sky130_fd_pr__pfet_01v8 ad=0.4 pd=2.4 as=0.4 ps=2.4 w=2 l=0.15
X20 VOUT+.t23 two_stage_opamp_dummy_magic_19_0.cap_res_Y.t133 sky130_fd_pr__cap_mim_m3_1 l=2 w=2
X21 bgr_9_0.1st_Vout_2.t4 bgr_9_0.V_CUR_REF_REG.t3 bgr_9_0.V_p_2.t9 GNDA.t68 sky130_fd_pr__nfet_01v8 ad=0.1 pd=0.9 as=0.1 ps=0.9 w=0.5 l=0.2
X22 VOUT+.t24 two_stage_opamp_dummy_magic_19_0.cap_res_Y.t132 sky130_fd_pr__cap_mim_m3_1 l=2 w=2
X23 VOUT+.t25 two_stage_opamp_dummy_magic_19_0.cap_res_Y.t131 sky130_fd_pr__cap_mim_m3_1 l=2 w=2
X24 a_7460_23988.t0 bgr_9_0.Vin+.t1 GNDA.t90 sky130_fd_pr__res_xhigh_po_0p35 l=6
X25 two_stage_opamp_dummy_magic_19_0.VD2.t18 GNDA.t279 GNDA.t280 GNDA.t201 sky130_fd_pr__nfet_01v8 ad=0.3 pd=1.9 as=0.6 ps=3.8 w=1.5 l=0.15
X26 VDDA.t104 two_stage_opamp_dummy_magic_19_0.V_err_gate.t6 two_stage_opamp_dummy_magic_19_0.V_err_mir_p.t2 VDDA.t103 sky130_fd_pr__pfet_01v8 ad=0.5 pd=2.9 as=0.5 ps=2.9 w=2.5 l=0.15
X27 two_stage_opamp_dummy_magic_19_0.VD1.t13 two_stage_opamp_dummy_magic_19_0.Vb1.t12 two_stage_opamp_dummy_magic_19_0.X.t0 GNDA.t7 sky130_fd_pr__nfet_01v8 ad=0.3 pd=1.9 as=0.3 ps=1.9 w=1.5 l=0.15
X28 two_stage_opamp_dummy_magic_19_0.V_tail_gate.t2 GNDA.t277 GNDA.t278 GNDA.t15 sky130_fd_pr__nfet_01v8 ad=0.3 pd=1.9 as=0.6 ps=3.8 w=1.5 l=0.15
X29 VOUT+.t26 two_stage_opamp_dummy_magic_19_0.cap_res_Y.t130 sky130_fd_pr__cap_mim_m3_1 l=2 w=2
X30 VOUT+.t11 two_stage_opamp_dummy_magic_19_0.V_b_2nd_stage.t2 GNDA.t135 GNDA.t134 sky130_fd_pr__nfet_01v8 ad=1.4 pd=7.4 as=1.4 ps=7.4 w=7 l=0.6
X31 two_stage_opamp_dummy_magic_19_0.VD1.t12 two_stage_opamp_dummy_magic_19_0.Vb1.t13 two_stage_opamp_dummy_magic_19_0.X.t5 GNDA.t34 sky130_fd_pr__nfet_01v8 ad=0.3 pd=1.9 as=0.3 ps=1.9 w=1.5 l=0.15
X32 bgr_9_0.1st_Vout_2.t12 bgr_9_0.cap_res2.t18 sky130_fd_pr__cap_mim_m3_1 l=2 w=2
X33 two_stage_opamp_dummy_magic_19_0.VD2.t4 two_stage_opamp_dummy_magic_19_0.Vb1.t14 two_stage_opamp_dummy_magic_19_0.Y.t13 GNDA.t38 sky130_fd_pr__nfet_01v8 ad=0.3 pd=1.9 as=0.3 ps=1.9 w=1.5 l=0.15
X34 GNDA.t89 a_6930_22564.t1 GNDA.t75 sky130_fd_pr__res_xhigh_po_0p35 l=4.33
X35 VDDA.t350 VDDA.t348 VDDA.t350 VDDA.t349 sky130_fd_pr__pfet_01v8 ad=0.4 pd=2.4 as=0 ps=0 w=2 l=0.15
X36 GNDA.t276 GNDA.t275 two_stage_opamp_dummy_magic_19_0.Y.t22 GNDA.t270 sky130_fd_pr__nfet_01v8 ad=0.6 pd=3.8 as=0.3 ps=1.9 w=1.5 l=0.15
X37 VDDA.t358 bgr_9_0.PFET_GATE_10uA.t10 two_stage_opamp_dummy_magic_19_0.V_tail_gate.t4 VDDA.t357 sky130_fd_pr__pfet_01v8 ad=0.4 pd=2.4 as=0.4 ps=2.4 w=2 l=0.15
X38 VOUT-.t20 two_stage_opamp_dummy_magic_19_0.cap_res_X.t136 sky130_fd_pr__cap_mim_m3_1 l=2 w=2
X39 VOUT-.t21 two_stage_opamp_dummy_magic_19_0.cap_res_X.t135 sky130_fd_pr__cap_mim_m3_1 l=2 w=2
X40 VOUT-.t22 two_stage_opamp_dummy_magic_19_0.cap_res_X.t134 sky130_fd_pr__cap_mim_m3_1 l=2 w=2
X41 VOUT+.t27 two_stage_opamp_dummy_magic_19_0.cap_res_Y.t129 sky130_fd_pr__cap_mim_m3_1 l=2 w=2
X42 bgr_9_0.1st_Vout_1.t11 bgr_9_0.cap_res1.t20 sky130_fd_pr__cap_mim_m3_1 l=2 w=2
X43 bgr_9_0.1st_Vout_2.t5 bgr_9_0.V_mir2.t17 VDDA.t91 VDDA.t90 sky130_fd_pr__pfet_01v8 ad=0.2 pd=1.4 as=0.2 ps=1.4 w=1 l=0.2
X44 VDDA.t86 bgr_9_0.V_TOP.t16 bgr_9_0.Vin-.t6 VDDA.t85 sky130_fd_pr__pfet_01v8 ad=0.6 pd=3.4 as=0.6 ps=3.4 w=3 l=0.5
X45 VOUT+.t10 a_5820_2720.t1 GNDA.t133 sky130_fd_pr__res_xhigh_po_0p35 l=2.63
X46 bgr_9_0.1st_Vout_1.t6 bgr_9_0.Vin+.t6 bgr_9_0.V_p_1.t9 GNDA.t23 sky130_fd_pr__nfet_01v8 ad=0.1 pd=0.9 as=0.1 ps=0.9 w=0.5 l=0.2
X47 GNDA.t150 VDDA.t412 bgr_9_0.V_p_2.t10 GNDA.t149 sky130_fd_pr__nfet_01v8 ad=1 pd=5.8 as=1 ps=5.8 w=2.5 l=5
X48 two_stage_opamp_dummy_magic_19_0.V_CMFB_S2.t8 two_stage_opamp_dummy_magic_19_0.X.t27 VDDA.t171 GNDA.t123 sky130_fd_pr__nfet_01v8 ad=0.6 pd=3.4 as=0.6 ps=3.4 w=3 l=0.15
X49 VOUT+.t28 two_stage_opamp_dummy_magic_19_0.cap_res_Y.t128 sky130_fd_pr__cap_mim_m3_1 l=2 w=2
X50 bgr_9_0.cap_res2.t20 bgr_9_0.PFET_GATE_10uA.t6 GNDA.t103 sky130_fd_pr__res_high_po_0p35 l=2.05
X51 bgr_9_0.1st_Vout_1.t12 bgr_9_0.cap_res1.t19 sky130_fd_pr__cap_mim_m3_1 l=2 w=2
X52 two_stage_opamp_dummy_magic_19_0.Vb2_Vb3.t8 two_stage_opamp_dummy_magic_19_0.Vb2_Vb3.t5 two_stage_opamp_dummy_magic_19_0.Vb2_Vb3.t7 two_stage_opamp_dummy_magic_19_0.Vb2_Vb3.t6 sky130_fd_pr__pfet_01v8 ad=1.4 pd=7.8 as=0 ps=0 w=3.5 l=0.2
X53 VOUT-.t16 two_stage_opamp_dummy_magic_19_0.X.t28 VDDA.t375 VDDA.t374 sky130_fd_pr__pfet_01v8 ad=1.2 pd=6.4 as=1.2 ps=6.4 w=6 l=0.15
X54 two_stage_opamp_dummy_magic_19_0.V_source.t14 VIN-.t0 two_stage_opamp_dummy_magic_19_0.VD1.t17 GNDA.t102 sky130_fd_pr__nfet_01v8 ad=0.3 pd=1.9 as=0.3 ps=1.9 w=1.5 l=0.15
X55 VOUT+.t29 two_stage_opamp_dummy_magic_19_0.cap_res_Y.t127 sky130_fd_pr__cap_mim_m3_1 l=2 w=2
X56 VOUT-.t23 two_stage_opamp_dummy_magic_19_0.cap_res_X.t133 sky130_fd_pr__cap_mim_m3_1 l=2 w=2
X57 two_stage_opamp_dummy_magic_19_0.V_source.t19 two_stage_opamp_dummy_magic_19_0.Vb1.t15 two_stage_opamp_dummy_magic_19_0.Vb1_2.t0 GNDA.t148 sky130_fd_pr__nfet_01v8 ad=0.6 pd=3.8 as=0.6 ps=3.8 w=1.5 l=3
X58 two_stage_opamp_dummy_magic_19_0.VD4.t35 two_stage_opamp_dummy_magic_19_0.Vb3.t8 VDDA.t236 VDDA.t235 sky130_fd_pr__pfet_01v8 ad=0.7 pd=3.9 as=0.7 ps=3.9 w=3.5 l=0.2
X59 two_stage_opamp_dummy_magic_19_0.V_source.t9 VIN+.t0 two_stage_opamp_dummy_magic_19_0.VD2.t8 GNDA.t73 sky130_fd_pr__nfet_01v8 ad=0.3 pd=1.9 as=0.3 ps=1.9 w=1.5 l=0.15
X60 VOUT-.t24 two_stage_opamp_dummy_magic_19_0.cap_res_X.t132 sky130_fd_pr__cap_mim_m3_1 l=2 w=2
X61 VOUT-.t25 two_stage_opamp_dummy_magic_19_0.cap_res_X.t131 sky130_fd_pr__cap_mim_m3_1 l=2 w=2
X62 VDDA.t34 two_stage_opamp_dummy_magic_19_0.Y.t26 VOUT+.t4 VDDA.t33 sky130_fd_pr__pfet_01v8 ad=1.2 pd=6.4 as=1.2 ps=6.4 w=6 l=0.15
X63 two_stage_opamp_dummy_magic_19_0.err_amp_out.t1 two_stage_opamp_dummy_magic_19_0.err_amp_mir.t5 GNDA.t72 GNDA.t2 sky130_fd_pr__nfet_01v8 ad=0.5 pd=2.9 as=0.5 ps=2.9 w=2.5 l=0.15
X64 two_stage_opamp_dummy_magic_19_0.V_source.t36 two_stage_opamp_dummy_magic_19_0.V_tail_gate.t9 GNDA.t117 GNDA.t116 sky130_fd_pr__nfet_01v8 ad=0.5 pd=2.9 as=0.5 ps=2.9 w=2.5 l=0.15
X65 VDDA.t397 bgr_9_0.1st_Vout_1.t13 bgr_9_0.V_TOP.t13 VDDA.t396 sky130_fd_pr__pfet_01v8 ad=0.2 pd=1.4 as=0.2 ps=1.4 w=1 l=0.2
X66 bgr_9_0.V_TOP.t17 VDDA.t87 sky130_fd_pr__cap_mim_m3_1 l=2 w=2
X67 VOUT-.t26 two_stage_opamp_dummy_magic_19_0.cap_res_X.t130 sky130_fd_pr__cap_mim_m3_1 l=2 w=2
X68 GNDA.t274 GNDA.t272 bgr_9_0.NFET_GATE_10uA.t0 GNDA.t273 sky130_fd_pr__nfet_01v8 ad=0.4 pd=2.8 as=0.2 ps=1.4 w=1 l=0.15
X69 bgr_9_0.START_UP.t5 bgr_9_0.V_TOP.t18 VDDA.t62 VDDA.t61 sky130_fd_pr__pfet_01v8 ad=0.6 pd=3.4 as=0.6 ps=3.4 w=3 l=0.5
X70 VOUT-.t27 two_stage_opamp_dummy_magic_19_0.cap_res_X.t129 sky130_fd_pr__cap_mim_m3_1 l=2 w=2
X71 two_stage_opamp_dummy_magic_19_0.V_err_gate.t3 bgr_9_0.NFET_GATE_10uA.t6 GNDA.t190 GNDA.t189 sky130_fd_pr__nfet_01v8 ad=0.2 pd=1.4 as=0.2 ps=1.4 w=1 l=0.15
X72 VDDA.t234 two_stage_opamp_dummy_magic_19_0.Vb3.t9 two_stage_opamp_dummy_magic_19_0.VD3.t35 VDDA.t233 sky130_fd_pr__pfet_01v8 ad=0.7 pd=3.9 as=0.7 ps=3.9 w=3.5 l=0.2
X73 bgr_9_0.1st_Vout_1.t10 bgr_9_0.Vin+.t7 bgr_9_0.V_p_1.t8 GNDA.t24 sky130_fd_pr__nfet_01v8 ad=0.2 pd=1.8 as=0.1 ps=0.9 w=0.5 l=0.2
X74 VOUT-.t28 two_stage_opamp_dummy_magic_19_0.cap_res_X.t128 sky130_fd_pr__cap_mim_m3_1 l=2 w=2
X75 GNDA.t14 two_stage_opamp_dummy_magic_19_0.V_tail_gate.t10 two_stage_opamp_dummy_magic_19_0.V_source.t35 GNDA.t13 sky130_fd_pr__nfet_01v8 ad=0.5 pd=2.9 as=0.5 ps=2.9 w=2.5 l=0.15
X76 VOUT+.t30 two_stage_opamp_dummy_magic_19_0.cap_res_Y.t126 sky130_fd_pr__cap_mim_m3_1 l=2 w=2
X77 VOUT-.t7 a_14170_2720.t0 GNDA.t120 sky130_fd_pr__res_xhigh_po_0p35 l=2.63
X78 VDDA.t66 two_stage_opamp_dummy_magic_19_0.X.t29 two_stage_opamp_dummy_magic_19_0.V_CMFB_S2.t7 GNDA.t53 sky130_fd_pr__nfet_01v8 ad=0.6 pd=3.4 as=0.6 ps=3.4 w=3 l=0.15
X79 bgr_9_0.1st_Vout_1.t14 bgr_9_0.cap_res1.t18 sky130_fd_pr__cap_mim_m3_1 l=2 w=2
X80 two_stage_opamp_dummy_magic_19_0.V_CMFB_S4.t10 two_stage_opamp_dummy_magic_19_0.Y.t27 VDDA.t54 GNDA.t48 sky130_fd_pr__nfet_01v8 ad=0.6 pd=3.4 as=0.6 ps=3.4 w=3 l=0.15
X81 two_stage_opamp_dummy_magic_19_0.V_err_p.t2 two_stage_opamp_dummy_magic_19_0.V_err_gate.t7 VDDA.t13 VDDA.t12 sky130_fd_pr__pfet_01v8 ad=0.5 pd=2.9 as=0.5 ps=2.9 w=2.5 l=0.15
X82 two_stage_opamp_dummy_magic_19_0.V_tail_gate.t7 VIN-.t1 two_stage_opamp_dummy_magic_19_0.V_p_mir.t5 GNDA.t2 sky130_fd_pr__nfet_01v8 ad=0.3 pd=1.9 as=0.3 ps=1.9 w=1.5 l=0.15
X83 two_stage_opamp_dummy_magic_19_0.V_CMFB_S4.t9 two_stage_opamp_dummy_magic_19_0.Y.t28 VDDA.t40 GNDA.t42 sky130_fd_pr__nfet_01v8 ad=0.6 pd=3.4 as=0.6 ps=3.4 w=3 l=0.15
X84 bgr_9_0.V_TOP.t19 VDDA.t63 sky130_fd_pr__cap_mim_m3_1 l=2 w=2
X85 bgr_9_0.V_mir2.t11 bgr_9_0.V_mir2.t10 VDDA.t3 VDDA.t2 sky130_fd_pr__pfet_01v8 ad=0.2 pd=1.4 as=0.2 ps=1.4 w=1 l=0.2
X86 two_stage_opamp_dummy_magic_19_0.V_CMFB_S3.t15 VDDA.t333 VDDA.t335 VDDA.t334 sky130_fd_pr__pfet_01v8 ad=0.2 pd=1.4 as=0.4 ps=2.8 w=1 l=0.15
X87 VOUT-.t29 two_stage_opamp_dummy_magic_19_0.cap_res_X.t127 sky130_fd_pr__cap_mim_m3_1 l=2 w=2
X88 two_stage_opamp_dummy_magic_19_0.V_CMFB_S3.t2 bgr_9_0.PFET_GATE_10uA.t11 VDDA.t164 VDDA.t163 sky130_fd_pr__pfet_01v8 ad=0.2 pd=1.4 as=0.2 ps=1.4 w=1 l=0.15
X89 two_stage_opamp_dummy_magic_19_0.Vb2_Vb3.t10 VDDA.t345 VDDA.t347 VDDA.t346 sky130_fd_pr__pfet_01v8 ad=0.7 pd=3.9 as=1.4 ps=7.8 w=3.5 l=0.2
X90 VDDA.t7 bgr_9_0.PFET_GATE_10uA.t12 two_stage_opamp_dummy_magic_19_0.V_CMFB_S3.t0 VDDA.t6 sky130_fd_pr__pfet_01v8 ad=0.2 pd=1.4 as=0.2 ps=1.4 w=1 l=0.15
X91 GNDA.t36 two_stage_opamp_dummy_magic_19_0.Y.t29 two_stage_opamp_dummy_magic_19_0.V_CMFB_S3.t11 VDDA.t32 sky130_fd_pr__pfet_01v8 ad=0.4 pd=2.4 as=0.4 ps=2.4 w=2 l=0.15
X92 VOUT+.t31 two_stage_opamp_dummy_magic_19_0.cap_res_Y.t125 sky130_fd_pr__cap_mim_m3_1 l=2 w=2
X93 bgr_9_0.V_TOP.t20 VDDA.t64 sky130_fd_pr__cap_mim_m3_1 l=2 w=2
X94 GNDA.t16 two_stage_opamp_dummy_magic_19_0.V_tail_gate.t11 two_stage_opamp_dummy_magic_19_0.V_source.t34 GNDA.t15 sky130_fd_pr__nfet_01v8 ad=0.5 pd=2.9 as=0.5 ps=2.9 w=2.5 l=0.15
X95 bgr_9_0.1st_Vout_2.t2 bgr_9_0.V_CUR_REF_REG.t4 bgr_9_0.V_p_2.t8 GNDA.t50 sky130_fd_pr__nfet_01v8 ad=0.1 pd=0.9 as=0.1 ps=0.9 w=0.5 l=0.2
X96 two_stage_opamp_dummy_magic_19_0.VD4.t19 two_stage_opamp_dummy_magic_19_0.Vb2.t12 two_stage_opamp_dummy_magic_19_0.Y.t2 two_stage_opamp_dummy_magic_19_0.VD4.t18 sky130_fd_pr__pfet_01v8 ad=0.7 pd=3.9 as=0.7 ps=3.9 w=3.5 l=0.2
X97 VOUT-.t30 two_stage_opamp_dummy_magic_19_0.cap_res_X.t126 sky130_fd_pr__cap_mim_m3_1 l=2 w=2
X98 VOUT-.t31 two_stage_opamp_dummy_magic_19_0.cap_res_X.t125 sky130_fd_pr__cap_mim_m3_1 l=2 w=2
X99 VOUT-.t32 two_stage_opamp_dummy_magic_19_0.cap_res_X.t124 sky130_fd_pr__cap_mim_m3_1 l=2 w=2
X100 two_stage_opamp_dummy_magic_19_0.Vb2_Vb3.t4 two_stage_opamp_dummy_magic_19_0.Vb2_Vb3.t2 two_stage_opamp_dummy_magic_19_0.Vb3.t2 two_stage_opamp_dummy_magic_19_0.Vb2_Vb3.t3 sky130_fd_pr__pfet_01v8 ad=1.4 pd=7.8 as=0.7 ps=3.9 w=3.5 l=0.2
X101 two_stage_opamp_dummy_magic_19_0.VD2.t19 two_stage_opamp_dummy_magic_19_0.Vb1.t16 two_stage_opamp_dummy_magic_19_0.Y.t23 GNDA.t304 sky130_fd_pr__nfet_01v8 ad=0.3 pd=1.9 as=0.3 ps=1.9 w=1.5 l=0.15
X102 two_stage_opamp_dummy_magic_19_0.V_source.t33 two_stage_opamp_dummy_magic_19_0.V_tail_gate.t12 GNDA.t57 GNDA.t56 sky130_fd_pr__nfet_01v8 ad=0.5 pd=2.9 as=0.5 ps=2.9 w=2.5 l=0.15
X103 bgr_9_0.PFET_GATE_10uA.t5 bgr_9_0.1st_Vout_2.t13 VDDA.t403 VDDA.t402 sky130_fd_pr__pfet_01v8 ad=0.2 pd=1.4 as=0.2 ps=1.4 w=1 l=0.2
X104 VOUT-.t33 two_stage_opamp_dummy_magic_19_0.cap_res_X.t123 sky130_fd_pr__cap_mim_m3_1 l=2 w=2
X105 bgr_9_0.V_TOP.t21 VDDA.t181 sky130_fd_pr__cap_mim_m3_1 l=2 w=2
X106 bgr_9_0.START_UP_NFET1.t0 bgr_9_0.START_UP_NFET1 GNDA.t86 GNDA.t85 sky130_fd_pr__nfet_01v8 ad=0.2 pd=1.4 as=0.4 ps=2.8 w=1 l=10
X107 two_stage_opamp_dummy_magic_19_0.VD3.t17 two_stage_opamp_dummy_magic_19_0.Vb2.t13 two_stage_opamp_dummy_magic_19_0.X.t10 two_stage_opamp_dummy_magic_19_0.VD3.t16 sky130_fd_pr__pfet_01v8 ad=0.7 pd=3.9 as=0.7 ps=3.9 w=3.5 l=0.2
X108 VOUT+.t32 two_stage_opamp_dummy_magic_19_0.cap_res_Y.t124 sky130_fd_pr__cap_mim_m3_1 l=2 w=2
X109 two_stage_opamp_dummy_magic_19_0.V_source.t4 VIN-.t2 two_stage_opamp_dummy_magic_19_0.VD1.t1 GNDA.t7 sky130_fd_pr__nfet_01v8 ad=0.3 pd=1.9 as=0.3 ps=1.9 w=1.5 l=0.15
X110 bgr_9_0.V_CUR_REF_REG.t2 VDDA.t342 VDDA.t344 VDDA.t343 sky130_fd_pr__pfet_01v8 ad=0.2 pd=1.4 as=0.4 ps=2.8 w=1 l=0.15
X111 VOUT-.t12 VDDA.t339 VDDA.t341 VDDA.t340 sky130_fd_pr__pfet_01v8 ad=1.2 pd=6.4 as=2.4 ps=12.8 w=6 l=0.15
X112 two_stage_opamp_dummy_magic_19_0.V_source.t11 VIN-.t3 two_stage_opamp_dummy_magic_19_0.VD1.t14 GNDA.t34 sky130_fd_pr__nfet_01v8 ad=0.3 pd=1.9 as=0.3 ps=1.9 w=1.5 l=0.15
X113 VOUT+.t33 two_stage_opamp_dummy_magic_19_0.cap_res_Y.t123 sky130_fd_pr__cap_mim_m3_1 l=2 w=2
X114 bgr_9_0.V_TOP.t22 VDDA.t182 sky130_fd_pr__cap_mim_m3_1 l=2 w=2
X115 GNDA.t188 bgr_9_0.NFET_GATE_10uA.t7 two_stage_opamp_dummy_magic_19_0.V_CMFB_S2.t13 GNDA.t187 sky130_fd_pr__nfet_01v8 ad=0.2 pd=1.4 as=0.2 ps=1.4 w=1 l=0.15
X116 two_stage_opamp_dummy_magic_19_0.V_CMFB_S2.t12 bgr_9_0.NFET_GATE_10uA.t8 GNDA.t186 GNDA.t185 sky130_fd_pr__nfet_01v8 ad=0.2 pd=1.4 as=0.2 ps=1.4 w=1 l=0.15
X117 two_stage_opamp_dummy_magic_19_0.VD4.t17 two_stage_opamp_dummy_magic_19_0.Vb2.t14 two_stage_opamp_dummy_magic_19_0.Y.t7 two_stage_opamp_dummy_magic_19_0.VD4.t16 sky130_fd_pr__pfet_01v8 ad=0.7 pd=3.9 as=0.7 ps=3.9 w=3.5 l=0.2
X118 two_stage_opamp_dummy_magic_19_0.V_source.t15 VIN+.t1 two_stage_opamp_dummy_magic_19_0.VD2.t14 GNDA.t38 sky130_fd_pr__nfet_01v8 ad=0.3 pd=1.9 as=0.3 ps=1.9 w=1.5 l=0.15
X119 VDDA.t53 two_stage_opamp_dummy_magic_19_0.Y.t30 VOUT+.t5 VDDA.t52 sky130_fd_pr__pfet_01v8 ad=1.2 pd=6.4 as=1.2 ps=6.4 w=6 l=0.15
X120 GNDA.t271 GNDA.t269 two_stage_opamp_dummy_magic_19_0.VD2.t17 GNDA.t270 sky130_fd_pr__nfet_01v8 ad=0.6 pd=3.8 as=0.3 ps=1.9 w=1.5 l=0.15
X121 VOUT-.t34 two_stage_opamp_dummy_magic_19_0.cap_res_X.t122 sky130_fd_pr__cap_mim_m3_1 l=2 w=2
X122 two_stage_opamp_dummy_magic_19_0.V_source.t32 two_stage_opamp_dummy_magic_19_0.V_tail_gate.t13 GNDA.t59 GNDA.t58 sky130_fd_pr__nfet_01v8 ad=0.5 pd=2.9 as=0.5 ps=2.9 w=2.5 l=0.15
X123 VOUT-.t35 two_stage_opamp_dummy_magic_19_0.cap_res_X.t121 sky130_fd_pr__cap_mim_m3_1 l=2 w=2
X124 VOUT-.t36 two_stage_opamp_dummy_magic_19_0.cap_res_X.t120 sky130_fd_pr__cap_mim_m3_1 l=2 w=2
X125 VOUT-.t37 two_stage_opamp_dummy_magic_19_0.cap_res_X.t119 sky130_fd_pr__cap_mim_m3_1 l=2 w=2
X126 bgr_9_0.1st_Vout_2.t14 bgr_9_0.cap_res2.t17 sky130_fd_pr__cap_mim_m3_1 l=2 w=2
X127 VOUT+.t34 two_stage_opamp_dummy_magic_19_0.cap_res_Y.t122 sky130_fd_pr__cap_mim_m3_1 l=2 w=2
X128 VOUT+.t35 two_stage_opamp_dummy_magic_19_0.cap_res_Y.t121 sky130_fd_pr__cap_mim_m3_1 l=2 w=2
X129 two_stage_opamp_dummy_magic_19_0.Vb1.t2 two_stage_opamp_dummy_magic_19_0.Vb1.t1 two_stage_opamp_dummy_magic_19_0.Vb1_2.t4 GNDA.t61 sky130_fd_pr__nfet_01v8 ad=0.3 pd=1.9 as=0.3 ps=1.9 w=1.5 l=0.15
X130 VOUT+.t36 two_stage_opamp_dummy_magic_19_0.cap_res_Y.t120 sky130_fd_pr__cap_mim_m3_1 l=2 w=2
X131 VOUT+.t37 two_stage_opamp_dummy_magic_19_0.cap_res_Y.t119 sky130_fd_pr__cap_mim_m3_1 l=2 w=2
X132 VOUT+.t38 two_stage_opamp_dummy_magic_19_0.cap_res_Y.t118 sky130_fd_pr__cap_mim_m3_1 l=2 w=2
X133 GNDA.t60 two_stage_opamp_dummy_magic_19_0.V_tail_gate.t14 two_stage_opamp_dummy_magic_19_0.V_source.t31 GNDA.t2 sky130_fd_pr__nfet_01v8 ad=0.5 pd=2.9 as=0.5 ps=2.9 w=2.5 l=0.15
X134 a_12530_23988.t0 bgr_9_0.Vin-.t1 GNDA.t66 sky130_fd_pr__res_xhigh_po_0p35 l=6
X135 two_stage_opamp_dummy_magic_19_0.VD3.t15 two_stage_opamp_dummy_magic_19_0.Vb2.t15 two_stage_opamp_dummy_magic_19_0.X.t13 two_stage_opamp_dummy_magic_19_0.VD3.t14 sky130_fd_pr__pfet_01v8 ad=0.7 pd=3.9 as=0.7 ps=3.9 w=3.5 l=0.2
X136 two_stage_opamp_dummy_magic_19_0.V_CMFB_S4.t8 two_stage_opamp_dummy_magic_19_0.Y.t31 VDDA.t139 GNDA.t100 sky130_fd_pr__nfet_01v8 ad=0.6 pd=3.4 as=0.6 ps=3.4 w=3 l=0.15
X137 VOUT-.t38 two_stage_opamp_dummy_magic_19_0.cap_res_X.t118 sky130_fd_pr__cap_mim_m3_1 l=2 w=2
X138 VOUT-.t39 two_stage_opamp_dummy_magic_19_0.cap_res_X.t117 sky130_fd_pr__cap_mim_m3_1 l=2 w=2
X139 bgr_9_0.1st_Vout_2.t9 bgr_9_0.V_mir2.t18 VDDA.t192 VDDA.t191 sky130_fd_pr__pfet_01v8 ad=0.2 pd=1.4 as=0.2 ps=1.4 w=1 l=0.2
X140 two_stage_opamp_dummy_magic_19_0.V_err_p.t0 two_stage_opamp_dummy_magic_19_0.V_tot.t4 two_stage_opamp_dummy_magic_19_0.err_amp_mir.t0 VDDA.t35 sky130_fd_pr__pfet_01v8 ad=0.5 pd=2.9 as=0.5 ps=2.9 w=2.5 l=0.15
X141 two_stage_opamp_dummy_magic_19_0.V_CMFB_S1.t11 two_stage_opamp_dummy_magic_19_0.X.t30 GNDA.t40 VDDA.t38 sky130_fd_pr__pfet_01v8 ad=0.4 pd=2.4 as=0.4 ps=2.4 w=2 l=0.15
X142 VOUT-.t40 two_stage_opamp_dummy_magic_19_0.cap_res_X.t116 sky130_fd_pr__cap_mim_m3_1 l=2 w=2
X143 GNDA.t47 two_stage_opamp_dummy_magic_19_0.Y.t32 two_stage_opamp_dummy_magic_19_0.V_CMFB_S3.t10 VDDA.t51 sky130_fd_pr__pfet_01v8 ad=0.4 pd=2.4 as=0.4 ps=2.4 w=2 l=0.15
X144 VOUT-.t41 two_stage_opamp_dummy_magic_19_0.cap_res_X.t115 sky130_fd_pr__cap_mim_m3_1 l=2 w=2
X145 bgr_9_0.1st_Vout_2.t15 bgr_9_0.cap_res2.t16 sky130_fd_pr__cap_mim_m3_1 l=2 w=2
X146 VDDA.t338 VDDA.t336 VDDA.t338 VDDA.t337 sky130_fd_pr__pfet_01v8 ad=0.4 pd=2.4 as=0 ps=0 w=2 l=0.15
X147 VOUT-.t42 two_stage_opamp_dummy_magic_19_0.cap_res_X.t114 sky130_fd_pr__cap_mim_m3_1 l=2 w=2
X148 VOUT+.t39 two_stage_opamp_dummy_magic_19_0.cap_res_Y.t117 sky130_fd_pr__cap_mim_m3_1 l=2 w=2
X149 VOUT-.t43 two_stage_opamp_dummy_magic_19_0.cap_res_X.t113 sky130_fd_pr__cap_mim_m3_1 l=2 w=2
X150 VOUT+.t40 two_stage_opamp_dummy_magic_19_0.cap_res_Y.t116 sky130_fd_pr__cap_mim_m3_1 l=2 w=2
X151 VOUT+.t41 two_stage_opamp_dummy_magic_19_0.cap_res_Y.t115 sky130_fd_pr__cap_mim_m3_1 l=2 w=2
X152 bgr_9_0.1st_Vout_1.t15 bgr_9_0.cap_res1.t17 sky130_fd_pr__cap_mim_m3_1 l=2 w=2
X153 VOUT+.t42 two_stage_opamp_dummy_magic_19_0.cap_res_Y.t114 sky130_fd_pr__cap_mim_m3_1 l=2 w=2
X154 bgr_9_0.V_mir1.t14 bgr_9_0.Vin-.t8 bgr_9_0.V_p_1.t4 GNDA.t131 sky130_fd_pr__nfet_01v8 ad=0.1 pd=0.9 as=0.1 ps=0.9 w=0.5 l=0.2
X155 bgr_9_0.V_mir1.t12 bgr_9_0.V_mir1.t11 VDDA.t10 VDDA.t9 sky130_fd_pr__pfet_01v8 ad=0.2 pd=1.4 as=0.2 ps=1.4 w=1 l=0.2
X156 two_stage_opamp_dummy_magic_19_0.VD2.t10 two_stage_opamp_dummy_magic_19_0.Vb1.t17 two_stage_opamp_dummy_magic_19_0.Y.t16 GNDA.t55 sky130_fd_pr__nfet_01v8 ad=0.3 pd=1.9 as=0.3 ps=1.9 w=1.5 l=0.15
X157 GNDA.t119 a_7580_22380.t0 GNDA.t90 sky130_fd_pr__res_xhigh_po_0p35 l=6
X158 VOUT-.t44 two_stage_opamp_dummy_magic_19_0.cap_res_X.t112 sky130_fd_pr__cap_mim_m3_1 l=2 w=2
X159 two_stage_opamp_dummy_magic_19_0.Vb3.t1 two_stage_opamp_dummy_magic_19_0.Vb2.t16 two_stage_opamp_dummy_magic_19_0.Vb2_Vb3.t1 two_stage_opamp_dummy_magic_19_0.Vb2_Vb3.t0 sky130_fd_pr__pfet_01v8 ad=0.7 pd=3.9 as=0.7 ps=3.9 w=3.5 l=0.2
X160 VOUT-.t45 two_stage_opamp_dummy_magic_19_0.cap_res_X.t111 sky130_fd_pr__cap_mim_m3_1 l=2 w=2
X161 VOUT+.t43 two_stage_opamp_dummy_magic_19_0.cap_res_Y.t113 sky130_fd_pr__cap_mim_m3_1 l=2 w=2
X162 VOUT-.t46 two_stage_opamp_dummy_magic_19_0.cap_res_X.t110 sky130_fd_pr__cap_mim_m3_1 l=2 w=2
X163 VOUT-.t47 two_stage_opamp_dummy_magic_19_0.cap_res_X.t109 sky130_fd_pr__cap_mim_m3_1 l=2 w=2
X164 VOUT-.t48 two_stage_opamp_dummy_magic_19_0.cap_res_X.t108 sky130_fd_pr__cap_mim_m3_1 l=2 w=2
X165 VDDA.t232 two_stage_opamp_dummy_magic_19_0.Vb3.t10 two_stage_opamp_dummy_magic_19_0.VD4.t34 VDDA.t231 sky130_fd_pr__pfet_01v8 ad=0.7 pd=3.9 as=0.7 ps=3.9 w=3.5 l=0.2
X166 bgr_9_0.V_TOP.t23 VDDA.t183 sky130_fd_pr__cap_mim_m3_1 l=2 w=2
X167 VDDA.t332 VDDA.t330 two_stage_opamp_dummy_magic_19_0.V_CMFB_S1.t14 VDDA.t331 sky130_fd_pr__pfet_01v8 ad=0.4 pd=2.8 as=0.2 ps=1.4 w=1 l=0.15
X168 VOUT-.t49 two_stage_opamp_dummy_magic_19_0.cap_res_X.t107 sky130_fd_pr__cap_mim_m3_1 l=2 w=2
X169 VOUT-.t50 two_stage_opamp_dummy_magic_19_0.cap_res_X.t106 sky130_fd_pr__cap_mim_m3_1 l=2 w=2
X170 two_stage_opamp_dummy_magic_19_0.V_CMFB_S1.t16 bgr_9_0.PFET_GATE_10uA.t13 VDDA.t409 VDDA.t408 sky130_fd_pr__pfet_01v8 ad=0.2 pd=1.4 as=0.2 ps=1.4 w=1 l=0.15
X171 VOUT-.t13 two_stage_opamp_dummy_magic_19_0.X.t31 VDDA.t371 VDDA.t370 sky130_fd_pr__pfet_01v8 ad=1.2 pd=6.4 as=1.2 ps=6.4 w=6 l=0.15
X172 VOUT+.t44 two_stage_opamp_dummy_magic_19_0.cap_res_Y.t112 sky130_fd_pr__cap_mim_m3_1 l=2 w=2
X173 VOUT+.t45 two_stage_opamp_dummy_magic_19_0.cap_res_Y.t111 sky130_fd_pr__cap_mim_m3_1 l=2 w=2
X174 two_stage_opamp_dummy_magic_19_0.V_source.t39 VIN+.t2 two_stage_opamp_dummy_magic_19_0.VD2.t20 GNDA.t304 sky130_fd_pr__nfet_01v8 ad=0.3 pd=1.9 as=0.3 ps=1.9 w=1.5 l=0.15
X175 bgr_9_0.V_mir1.t16 bgr_9_0.Vin-.t9 bgr_9_0.V_p_1.t3 GNDA.t300 sky130_fd_pr__nfet_01v8 ad=0.1 pd=0.9 as=0.1 ps=0.9 w=0.5 l=0.2
X176 two_stage_opamp_dummy_magic_19_0.X.t4 two_stage_opamp_dummy_magic_19_0.Vb1.t18 two_stage_opamp_dummy_magic_19_0.VD1.t11 GNDA.t0 sky130_fd_pr__nfet_01v8 ad=0.3 pd=1.9 as=0.3 ps=1.9 w=1.5 l=0.15
X177 VOUT+.t46 two_stage_opamp_dummy_magic_19_0.cap_res_Y.t110 sky130_fd_pr__cap_mim_m3_1 l=2 w=2
X178 two_stage_opamp_dummy_magic_19_0.VD3.t34 two_stage_opamp_dummy_magic_19_0.Vb3.t11 VDDA.t230 VDDA.t229 sky130_fd_pr__pfet_01v8 ad=0.7 pd=3.9 as=0.7 ps=3.9 w=3.5 l=0.2
X179 VOUT+.t47 two_stage_opamp_dummy_magic_19_0.cap_res_Y.t109 sky130_fd_pr__cap_mim_m3_1 l=2 w=2
X180 two_stage_opamp_dummy_magic_19_0.VD3.t13 two_stage_opamp_dummy_magic_19_0.Vb2.t17 two_stage_opamp_dummy_magic_19_0.X.t2 two_stage_opamp_dummy_magic_19_0.VD3.t12 sky130_fd_pr__pfet_01v8 ad=0.7 pd=3.9 as=0.7 ps=3.9 w=3.5 l=0.2
X181 two_stage_opamp_dummy_magic_19_0.V_b_2nd_stage.t1 a_14170_2720.t1 GNDA.t128 sky130_fd_pr__res_xhigh_po_0p35 l=2.63
X182 two_stage_opamp_dummy_magic_19_0.Vb1.t10 GNDA.t267 GNDA.t268 GNDA.t136 sky130_fd_pr__nfet_01v8 ad=0.3 pd=1.9 as=0.6 ps=3.8 w=1.5 l=0.15
X183 bgr_9_0.START_UP.t4 bgr_9_0.V_TOP.t24 VDDA.t177 VDDA.t176 sky130_fd_pr__pfet_01v8 ad=0.6 pd=3.4 as=0.6 ps=3.4 w=3 l=0.5
X184 VOUT-.t51 two_stage_opamp_dummy_magic_19_0.cap_res_X.t105 sky130_fd_pr__cap_mim_m3_1 l=2 w=2
X185 bgr_9_0.PFET_GATE_10uA.t4 bgr_9_0.1st_Vout_2.t16 VDDA.t391 VDDA.t390 sky130_fd_pr__pfet_01v8 ad=0.2 pd=1.4 as=0.2 ps=1.4 w=1 l=0.2
X186 VDDA.t381 bgr_9_0.V_mir1.t18 bgr_9_0.1st_Vout_1.t4 VDDA.t380 sky130_fd_pr__pfet_01v8 ad=0.2 pd=1.4 as=0.2 ps=1.4 w=1 l=0.2
X187 VOUT+.t48 two_stage_opamp_dummy_magic_19_0.cap_res_Y.t108 sky130_fd_pr__cap_mim_m3_1 l=2 w=2
X188 VOUT+.t49 two_stage_opamp_dummy_magic_19_0.cap_res_Y.t107 sky130_fd_pr__cap_mim_m3_1 l=2 w=2
X189 VOUT-.t52 two_stage_opamp_dummy_magic_19_0.cap_res_X.t104 sky130_fd_pr__cap_mim_m3_1 l=2 w=2
X190 VDDA.t67 two_stage_opamp_dummy_magic_19_0.X.t32 two_stage_opamp_dummy_magic_19_0.V_CMFB_S2.t6 GNDA.t54 sky130_fd_pr__nfet_01v8 ad=0.6 pd=3.4 as=0.6 ps=3.4 w=3 l=0.15
X191 VOUT-.t53 two_stage_opamp_dummy_magic_19_0.cap_res_X.t103 sky130_fd_pr__cap_mim_m3_1 l=2 w=2
X192 two_stage_opamp_dummy_magic_19_0.Vb2.t8 bgr_9_0.NFET_GATE_10uA.t9 GNDA.t184 GNDA.t183 sky130_fd_pr__nfet_01v8 ad=0.2 pd=1.4 as=0.2 ps=1.4 w=1 l=0.15
X193 VDDA.t228 two_stage_opamp_dummy_magic_19_0.Vb3.t12 two_stage_opamp_dummy_magic_19_0.Vb2_Vb3.t9 VDDA.t227 sky130_fd_pr__pfet_01v8 ad=0.7 pd=3.9 as=0.7 ps=3.9 w=3.5 l=0.2
X194 GNDA.t182 bgr_9_0.NFET_GATE_10uA.t10 two_stage_opamp_dummy_magic_19_0.Vb2.t7 GNDA.t181 sky130_fd_pr__nfet_01v8 ad=0.2 pd=1.4 as=0.2 ps=1.4 w=1 l=0.15
X195 two_stage_opamp_dummy_magic_19_0.V_CMFB_S4.t7 two_stage_opamp_dummy_magic_19_0.Y.t33 VDDA.t138 GNDA.t99 sky130_fd_pr__nfet_01v8 ad=0.6 pd=3.4 as=0.6 ps=3.4 w=3 l=0.15
X196 VOUT+.t50 two_stage_opamp_dummy_magic_19_0.cap_res_Y.t106 sky130_fd_pr__cap_mim_m3_1 l=2 w=2
X197 bgr_9_0.V_TOP.t25 VDDA.t178 sky130_fd_pr__cap_mim_m3_1 l=2 w=2
X198 GNDA.t180 bgr_9_0.NFET_GATE_10uA.t11 two_stage_opamp_dummy_magic_19_0.Vb2.t6 GNDA.t179 sky130_fd_pr__nfet_01v8 ad=0.2 pd=1.4 as=0.2 ps=1.4 w=1 l=0.15
X199 two_stage_opamp_dummy_magic_19_0.Y.t4 two_stage_opamp_dummy_magic_19_0.Vb2.t18 two_stage_opamp_dummy_magic_19_0.VD4.t15 two_stage_opamp_dummy_magic_19_0.VD4.t14 sky130_fd_pr__pfet_01v8 ad=0.7 pd=3.9 as=0.7 ps=3.9 w=3.5 l=0.2
X200 VDDA.t329 VDDA.t327 VOUT-.t11 VDDA.t328 sky130_fd_pr__pfet_01v8 ad=2.4 pd=12.8 as=1.2 ps=6.4 w=6 l=0.15
X201 VOUT+.t51 two_stage_opamp_dummy_magic_19_0.cap_res_Y.t105 sky130_fd_pr__cap_mim_m3_1 l=2 w=2
X202 VOUT-.t54 two_stage_opamp_dummy_magic_19_0.cap_res_X.t102 sky130_fd_pr__cap_mim_m3_1 l=2 w=2
X203 GNDA.t291 VDDA.t324 VDDA.t326 VDDA.t325 sky130_fd_pr__pfet_01v8 ad=0.4 pd=2.4 as=0.8 ps=4.8 w=2 l=0.15
X204 GNDA.t92 two_stage_opamp_dummy_magic_19_0.Y.t34 two_stage_opamp_dummy_magic_19_0.V_CMFB_S3.t9 VDDA.t117 sky130_fd_pr__pfet_01v8 ad=0.4 pd=2.4 as=0.4 ps=2.4 w=2 l=0.15
X205 VOUT+.t52 two_stage_opamp_dummy_magic_19_0.cap_res_Y.t104 sky130_fd_pr__cap_mim_m3_1 l=2 w=2
X206 VOUT+.t53 two_stage_opamp_dummy_magic_19_0.cap_res_Y.t103 sky130_fd_pr__cap_mim_m3_1 l=2 w=2
X207 VOUT+.t54 two_stage_opamp_dummy_magic_19_0.cap_res_Y.t102 sky130_fd_pr__cap_mim_m3_1 l=2 w=2
X208 VOUT+.t55 two_stage_opamp_dummy_magic_19_0.cap_res_Y.t101 sky130_fd_pr__cap_mim_m3_1 l=2 w=2
X209 VDDA.t180 bgr_9_0.V_TOP.t26 bgr_9_0.Vin+.t4 VDDA.t179 sky130_fd_pr__pfet_01v8 ad=0.6 pd=3.4 as=0.6 ps=3.4 w=3 l=0.5
X210 bgr_9_0.1st_Vout_2.t3 bgr_9_0.V_mir2.t19 VDDA.t73 VDDA.t72 sky130_fd_pr__pfet_01v8 ad=0.2 pd=1.4 as=0.2 ps=1.4 w=1 l=0.2
X211 VOUT-.t55 two_stage_opamp_dummy_magic_19_0.cap_res_X.t101 sky130_fd_pr__cap_mim_m3_1 l=2 w=2
X212 bgr_9_0.V_TOP.t2 bgr_9_0.1st_Vout_1.t16 VDDA.t106 VDDA.t105 sky130_fd_pr__pfet_01v8 ad=0.2 pd=1.4 as=0.2 ps=1.4 w=1 l=0.2
X213 VOUT-.t56 two_stage_opamp_dummy_magic_19_0.cap_res_X.t100 sky130_fd_pr__cap_mim_m3_1 l=2 w=2
X214 VOUT-.t57 two_stage_opamp_dummy_magic_19_0.cap_res_X.t99 sky130_fd_pr__cap_mim_m3_1 l=2 w=2
X215 VOUT-.t58 two_stage_opamp_dummy_magic_19_0.cap_res_X.t98 sky130_fd_pr__cap_mim_m3_1 l=2 w=2
X216 VOUT+.t56 two_stage_opamp_dummy_magic_19_0.cap_res_Y.t100 sky130_fd_pr__cap_mim_m3_1 l=2 w=2
X217 two_stage_opamp_dummy_magic_19_0.V_tail_gate.t5 bgr_9_0.PFET_GATE_10uA.t14 VDDA.t360 VDDA.t359 sky130_fd_pr__pfet_01v8 ad=0.4 pd=2.4 as=0.4 ps=2.4 w=2 l=0.15
X218 VOUT-.t59 two_stage_opamp_dummy_magic_19_0.cap_res_X.t97 sky130_fd_pr__cap_mim_m3_1 l=2 w=2
X219 two_stage_opamp_dummy_magic_19_0.X.t11 two_stage_opamp_dummy_magic_19_0.Vb2.t19 two_stage_opamp_dummy_magic_19_0.VD3.t11 two_stage_opamp_dummy_magic_19_0.VD3.t10 sky130_fd_pr__pfet_01v8 ad=0.7 pd=3.9 as=0.7 ps=3.9 w=3.5 l=0.2
X220 a_14330_5524.t0 two_stage_opamp_dummy_magic_19_0.V_CMFB_S2.t10 GNDA.t127 sky130_fd_pr__res_xhigh_po_0p35 l=1.75
X221 VOUT+.t57 two_stage_opamp_dummy_magic_19_0.cap_res_Y.t99 sky130_fd_pr__cap_mim_m3_1 l=2 w=2
X222 VOUT+.t58 two_stage_opamp_dummy_magic_19_0.cap_res_Y.t98 sky130_fd_pr__cap_mim_m3_1 l=2 w=2
X223 bgr_9_0.1st_Vout_2.t17 bgr_9_0.cap_res2.t15 sky130_fd_pr__cap_mim_m3_1 l=2 w=2
X224 a_6810_23838.t1 two_stage_opamp_dummy_magic_19_0.V_err_amp_ref.t0 GNDA.t75 sky130_fd_pr__res_xhigh_po_0p35 l=4.33
X225 two_stage_opamp_dummy_magic_19_0.Y.t1 two_stage_opamp_dummy_magic_19_0.Vb2.t20 two_stage_opamp_dummy_magic_19_0.VD4.t13 two_stage_opamp_dummy_magic_19_0.VD4.t12 sky130_fd_pr__pfet_01v8 ad=0.7 pd=3.9 as=0.7 ps=3.9 w=3.5 l=0.2
X226 bgr_9_0.Vin+.t0 bgr_9_0.sky130_fd_pr__rf_pnp_05v5_W3p40L3p40_25.Emitter.t0 GNDA.t26 sky130_fd_pr__res_xhigh_po_0p35 l=2.3
X227 VOUT+.t59 two_stage_opamp_dummy_magic_19_0.cap_res_Y.t97 sky130_fd_pr__cap_mim_m3_1 l=2 w=2
X228 VOUT+.t60 two_stage_opamp_dummy_magic_19_0.cap_res_Y.t96 sky130_fd_pr__cap_mim_m3_1 l=2 w=2
X229 VOUT-.t60 two_stage_opamp_dummy_magic_19_0.cap_res_X.t96 sky130_fd_pr__cap_mim_m3_1 l=2 w=2