* PEX produced on Fri Jul 18 10:41:38 AM CEST 2025 using /foss/tools/osic-multitool/iic-pex.sh with m=3 and s=1
* NGSPICE file created from bgr_opamp_dummy_magic_15.ext - technology: sky130A

.subckt bgr_opamp_dummy_magic_15 VDDA GNDA VOUT+ VOUT- VIN+ VIN-
X0 GNDA.t222 bgr_0.NFET_GATE_10uA.t5 two_stage_opamp_dummy_magic_21_0.Vb3.t4 GNDA.t221 sky130_fd_pr__nfet_01v8 ad=0.2 pd=1.4 as=0.2 ps=1.4 w=1 l=0.15
X1 bgr_0.V_TOP.t13 VDDA.t431 VDDA.t433 VDDA.t432 sky130_fd_pr__pfet_01v8 ad=0.2 pd=1.4 as=0.45 ps=2.9 w=1 l=0.15
X2 two_stage_opamp_dummy_magic_21_0.err_amp_out.t7 two_stage_opamp_dummy_magic_21_0.err_amp_mir.t17 GNDA.t130 GNDA.t129 sky130_fd_pr__nfet_01v8 ad=0.1 pd=0.9 as=0.1 ps=0.9 w=0.5 l=0.15
X3 two_stage_opamp_dummy_magic_21_0.V_p_mir.t2 two_stage_opamp_dummy_magic_21_0.V_tail_gate.t12 GNDA.t121 GNDA.t120 sky130_fd_pr__nfet_01v8 ad=0.5 pd=2.9 as=0.5 ps=2.9 w=2.5 l=0.15
X4 GNDA.t10 two_stage_opamp_dummy_magic_21_0.V_b_2nd_stage.t2 VOUT-.t9 GNDA.t9 sky130_fd_pr__nfet_01v8 ad=1.4 pd=7.4 as=1.4 ps=7.4 w=7 l=0.6
X5 two_stage_opamp_dummy_magic_21_0.VD2.t15 GNDA.t317 GNDA.t318 GNDA.t313 sky130_fd_pr__nfet_01v8 ad=0.3 pd=1.9 as=0.6 ps=3.8 w=1.5 l=0.15
X6 VOUT+.t19 two_stage_opamp_dummy_magic_21_0.cap_res_Y.t137 sky130_fd_pr__cap_mim_m3_1 l=2 w=2
X7 VDDA.t122 bgr_0.V_TOP.t14 two_stage_opamp_dummy_magic_21_0.V_err_amp_ref.t3 VDDA.t121 sky130_fd_pr__pfet_01v8 ad=0.6 pd=3.4 as=0.6 ps=3.4 w=3 l=0.5
X8 two_stage_opamp_dummy_magic_21_0.V_CMFB_S3.t14 two_stage_opamp_dummy_magic_21_0.Y.t25 GNDA.t66 VDDA.t91 sky130_fd_pr__pfet_01v8 ad=0.4 pd=2.4 as=0.4 ps=2.4 w=2 l=0.15
X9 VOUT+.t20 two_stage_opamp_dummy_magic_21_0.cap_res_Y.t136 sky130_fd_pr__cap_mim_m3_1 l=2 w=2
X10 VOUT+.t21 two_stage_opamp_dummy_magic_21_0.cap_res_Y.t135 sky130_fd_pr__cap_mim_m3_1 l=2 w=2
X11 bgr_0.Vin+.t3 bgr_0.V_TOP.t15 VDDA.t55 VDDA.t54 sky130_fd_pr__pfet_01v8 ad=0.6 pd=3.4 as=0.6 ps=3.4 w=3 l=0.5
X12 VDDA.t19 bgr_0.V_mir1.t17 bgr_0.1st_Vout_1.t5 VDDA.t18 sky130_fd_pr__pfet_01v8 ad=0.2 pd=1.4 as=0.2 ps=1.4 w=1 l=0.2
X13 VOUT+.t22 two_stage_opamp_dummy_magic_21_0.cap_res_Y.t134 sky130_fd_pr__cap_mim_m3_1 l=2 w=2
X14 bgr_0.1st_Vout_2.t11 bgr_0.cap_res2.t20 sky130_fd_pr__cap_mim_m3_1 l=2 w=2
X15 VOUT+.t23 two_stage_opamp_dummy_magic_21_0.cap_res_Y.t133 sky130_fd_pr__cap_mim_m3_1 l=2 w=2
X16 GNDA.t123 two_stage_opamp_dummy_magic_21_0.V_tail_gate.t13 two_stage_opamp_dummy_magic_21_0.V_source.t26 GNDA.t122 sky130_fd_pr__nfet_01v8 ad=0.5 pd=2.9 as=0.5 ps=2.9 w=2.5 l=0.15
X17 two_stage_opamp_dummy_magic_21_0.Y.t3 two_stage_opamp_dummy_magic_21_0.Vb2.t11 two_stage_opamp_dummy_magic_21_0.VD4.t25 two_stage_opamp_dummy_magic_21_0.VD4.t24 sky130_fd_pr__pfet_01v8 ad=0.7 pd=3.9 as=0.7 ps=3.9 w=3.5 l=0.2
X18 bgr_0.1st_Vout_2.t8 bgr_0.V_CUR_REF_REG.t3 bgr_0.V_p_2.t4 GNDA.t144 sky130_fd_pr__nfet_01v8 ad=0.1 pd=0.9 as=0.1 ps=0.9 w=0.5 l=0.2
X19 VDDA.t144 two_stage_opamp_dummy_magic_21_0.Y.t26 VOUT+.t8 VDDA.t143 sky130_fd_pr__pfet_01v8 ad=1.2 pd=6.4 as=1.2 ps=6.4 w=6 l=0.15
X20 VOUT+.t24 two_stage_opamp_dummy_magic_21_0.cap_res_Y.t132 sky130_fd_pr__cap_mim_m3_1 l=2 w=2
X21 VOUT+.t25 two_stage_opamp_dummy_magic_21_0.cap_res_Y.t131 sky130_fd_pr__cap_mim_m3_1 l=2 w=2
X22 GNDA.t140 two_stage_opamp_dummy_magic_21_0.V_tail_gate.t14 two_stage_opamp_dummy_magic_21_0.V_source.t25 GNDA.t139 sky130_fd_pr__nfet_01v8 ad=0.5 pd=2.9 as=0.5 ps=2.9 w=2.5 l=0.15
X23 a_7460_23988.t1 bgr_0.Vin+.t5 GNDA.t16 sky130_fd_pr__res_xhigh_po_0p35 l=6
X24 VDDA.t430 VDDA.t428 VDDA.t430 VDDA.t429 sky130_fd_pr__pfet_01v8 ad=0.7 pd=3.9 as=0 ps=0 w=3.5 l=0.2
X25 two_stage_opamp_dummy_magic_21_0.V_err_p.t11 two_stage_opamp_dummy_magic_21_0.V_err_amp_ref.t7 two_stage_opamp_dummy_magic_21_0.err_amp_out.t1 VDDA.t207 sky130_fd_pr__pfet_01v8 ad=0.1 pd=0.9 as=0.1 ps=0.9 w=0.5 l=0.15
X26 VOUT+.t26 two_stage_opamp_dummy_magic_21_0.cap_res_Y.t130 sky130_fd_pr__cap_mim_m3_1 l=2 w=2
X27 bgr_0.1st_Vout_2.t12 bgr_0.cap_res2.t19 sky130_fd_pr__cap_mim_m3_1 l=2 w=2
X28 two_stage_opamp_dummy_magic_21_0.X.t20 GNDA.t315 GNDA.t316 GNDA.t234 sky130_fd_pr__nfet_01v8 ad=0.3 pd=1.9 as=0.6 ps=3.8 w=1.5 l=0.15
X29 VDDA.t427 VDDA.t425 bgr_0.NFET_GATE_10uA.t0 VDDA.t426 sky130_fd_pr__pfet_01v8 ad=0.4 pd=2.8 as=0.2 ps=1.4 w=1 l=0.15
X30 two_stage_opamp_dummy_magic_21_0.X.t4 two_stage_opamp_dummy_magic_21_0.Vb1.t14 two_stage_opamp_dummy_magic_21_0.VD1.t21 GNDA.t75 sky130_fd_pr__nfet_01v8 ad=0.3 pd=1.9 as=0.3 ps=1.9 w=1.5 l=0.15
X31 GNDA.t148 a_6930_22564.t1 GNDA.t113 sky130_fd_pr__res_xhigh_po_0p35 l=4.33
X32 two_stage_opamp_dummy_magic_21_0.V_tail_gate.t3 bgr_0.PFET_GATE_10uA.t10 VDDA.t131 VDDA.t130 sky130_fd_pr__pfet_01v8 ad=0.2 pd=1.4 as=0.2 ps=1.4 w=1 l=0.15
X33 VDDA.t183 two_stage_opamp_dummy_magic_21_0.X.t25 VOUT-.t4 VDDA.t182 sky130_fd_pr__pfet_01v8 ad=1.2 pd=6.4 as=1.2 ps=6.4 w=6 l=0.15
X34 VDDA.t64 bgr_0.PFET_GATE_10uA.t11 two_stage_opamp_dummy_magic_21_0.V_tail_gate.t1 VDDA.t63 sky130_fd_pr__pfet_01v8 ad=0.2 pd=1.4 as=0.2 ps=1.4 w=1 l=0.15
X35 VOUT-.t19 two_stage_opamp_dummy_magic_21_0.cap_res_X.t137 sky130_fd_pr__cap_mim_m3_1 l=2 w=2
X36 VDDA.t212 two_stage_opamp_dummy_magic_21_0.X.t26 VOUT-.t11 VDDA.t211 sky130_fd_pr__pfet_01v8 ad=1.2 pd=6.4 as=1.2 ps=6.4 w=6 l=0.15
X37 VOUT-.t20 two_stage_opamp_dummy_magic_21_0.cap_res_X.t136 sky130_fd_pr__cap_mim_m3_1 l=2 w=2
X38 VOUT-.t21 two_stage_opamp_dummy_magic_21_0.cap_res_X.t135 sky130_fd_pr__cap_mim_m3_1 l=2 w=2
X39 VOUT+.t27 two_stage_opamp_dummy_magic_21_0.cap_res_Y.t129 sky130_fd_pr__cap_mim_m3_1 l=2 w=2
X40 bgr_0.1st_Vout_1.t11 bgr_0.cap_res1.t19 sky130_fd_pr__cap_mim_m3_1 l=2 w=2
X41 VOUT+.t28 two_stage_opamp_dummy_magic_21_0.cap_res_Y.t128 sky130_fd_pr__cap_mim_m3_1 l=2 w=2
X42 VOUT+.t29 two_stage_opamp_dummy_magic_21_0.cap_res_Y.t127 sky130_fd_pr__cap_mim_m3_1 l=2 w=2
X43 bgr_0.1st_Vout_2.t6 bgr_0.V_mir2.t17 VDDA.t142 VDDA.t141 sky130_fd_pr__pfet_01v8 ad=0.2 pd=1.4 as=0.2 ps=1.4 w=1 l=0.2
X44 VDDA.t57 bgr_0.V_TOP.t16 bgr_0.Vin-.t3 VDDA.t56 sky130_fd_pr__pfet_01v8 ad=0.6 pd=3.4 as=0.6 ps=3.4 w=3 l=0.5
X45 VOUT-.t22 two_stage_opamp_dummy_magic_21_0.cap_res_X.t134 sky130_fd_pr__cap_mim_m3_1 l=2 w=2
X46 bgr_0.1st_Vout_1.t8 bgr_0.Vin+.t6 bgr_0.V_p_1.t10 GNDA.t161 sky130_fd_pr__nfet_01v8 ad=0.1 pd=0.9 as=0.1 ps=0.9 w=0.5 l=0.2
X47 two_stage_opamp_dummy_magic_21_0.Y.t19 GNDA.t312 GNDA.t314 GNDA.t313 sky130_fd_pr__nfet_01v8 ad=0.3 pd=1.9 as=0.6 ps=3.8 w=1.5 l=0.15
X48 GNDA.t38 VDDA.t469 bgr_0.V_p_2.t10 GNDA.t37 sky130_fd_pr__nfet_01v8 ad=1 pd=5.8 as=1 ps=5.8 w=2.5 l=5
X49 VOUT+.t30 two_stage_opamp_dummy_magic_21_0.cap_res_Y.t126 sky130_fd_pr__cap_mim_m3_1 l=2 w=2
X50 bgr_0.cap_res2.t0 bgr_0.PFET_GATE_10uA.t0 GNDA.t57 sky130_fd_pr__res_high_po_0p35 l=2.05
X51 bgr_0.1st_Vout_1.t12 bgr_0.cap_res1.t18 sky130_fd_pr__cap_mim_m3_1 l=2 w=2
X52 GNDA.t331 two_stage_opamp_dummy_magic_21_0.X.t27 two_stage_opamp_dummy_magic_21_0.V_CMFB_S1.t13 VDDA.t457 sky130_fd_pr__pfet_01v8 ad=0.4 pd=2.4 as=0.4 ps=2.4 w=2 l=0.15
X53 VOUT+.t31 two_stage_opamp_dummy_magic_21_0.cap_res_Y.t125 sky130_fd_pr__cap_mim_m3_1 l=2 w=2
X54 VOUT-.t23 two_stage_opamp_dummy_magic_21_0.cap_res_X.t133 sky130_fd_pr__cap_mim_m3_1 l=2 w=2
X55 two_stage_opamp_dummy_magic_21_0.Y.t7 two_stage_opamp_dummy_magic_21_0.Vb2.t12 two_stage_opamp_dummy_magic_21_0.VD4.t23 two_stage_opamp_dummy_magic_21_0.VD4.t22 sky130_fd_pr__pfet_01v8 ad=0.7 pd=3.9 as=0.7 ps=3.9 w=3.5 l=0.2
X56 VOUT-.t24 two_stage_opamp_dummy_magic_21_0.cap_res_X.t132 sky130_fd_pr__cap_mim_m3_1 l=2 w=2
X57 two_stage_opamp_dummy_magic_21_0.err_amp_mir.t13 two_stage_opamp_dummy_magic_21_0.err_amp_mir.t12 GNDA.t180 GNDA.t179 sky130_fd_pr__nfet_01v8 ad=0.1 pd=0.9 as=0.1 ps=0.9 w=0.5 l=0.15
X58 VDDA.t258 bgr_0.1st_Vout_1.t13 bgr_0.V_TOP.t7 VDDA.t257 sky130_fd_pr__pfet_01v8 ad=0.2 pd=1.4 as=0.2 ps=1.4 w=1 l=0.2
X59 bgr_0.V_TOP.t17 VDDA.t58 sky130_fd_pr__cap_mim_m3_1 l=2 w=2
X60 VOUT-.t25 two_stage_opamp_dummy_magic_21_0.cap_res_X.t131 sky130_fd_pr__cap_mim_m3_1 l=2 w=2
X61 two_stage_opamp_dummy_magic_21_0.V_CMFB_S4.t10 two_stage_opamp_dummy_magic_21_0.Y.t27 VDDA.t145 GNDA.t115 sky130_fd_pr__nfet_01v8 ad=0.6 pd=3.4 as=0.6 ps=3.4 w=3 l=0.15
X62 two_stage_opamp_dummy_magic_21_0.VD1.t2 VIN-.t0 two_stage_opamp_dummy_magic_21_0.V_source.t6 GNDA.t19 sky130_fd_pr__nfet_01v8 ad=0.3 pd=1.9 as=0.3 ps=1.9 w=1.5 l=0.15
X63 GNDA.t311 GNDA.t309 bgr_0.NFET_GATE_10uA.t1 GNDA.t310 sky130_fd_pr__nfet_01v8 ad=0.4 pd=2.8 as=0.2 ps=1.4 w=1 l=0.15
X64 bgr_0.START_UP.t3 bgr_0.V_TOP.t18 VDDA.t435 VDDA.t434 sky130_fd_pr__pfet_01v8 ad=0.6 pd=3.4 as=0.6 ps=3.4 w=3 l=0.5
X65 VOUT-.t26 two_stage_opamp_dummy_magic_21_0.cap_res_X.t130 sky130_fd_pr__cap_mim_m3_1 l=2 w=2
X66 two_stage_opamp_dummy_magic_21_0.V_err_gate.t11 bgr_0.NFET_GATE_10uA.t6 GNDA.t220 GNDA.t219 sky130_fd_pr__nfet_01v8 ad=0.2 pd=1.4 as=0.2 ps=1.4 w=1 l=0.15
X67 bgr_0.1st_Vout_1.t7 bgr_0.Vin+.t7 bgr_0.V_p_1.t9 GNDA.t162 sky130_fd_pr__nfet_01v8 ad=0.2 pd=1.8 as=0.1 ps=0.9 w=0.5 l=0.2
X68 VOUT+.t32 two_stage_opamp_dummy_magic_21_0.cap_res_Y.t124 sky130_fd_pr__cap_mim_m3_1 l=2 w=2
X69 VOUT-.t27 two_stage_opamp_dummy_magic_21_0.cap_res_X.t129 sky130_fd_pr__cap_mim_m3_1 l=2 w=2
X70 VOUT-.t28 two_stage_opamp_dummy_magic_21_0.cap_res_X.t128 sky130_fd_pr__cap_mim_m3_1 l=2 w=2
X71 VOUT-.t29 two_stage_opamp_dummy_magic_21_0.cap_res_X.t127 sky130_fd_pr__cap_mim_m3_1 l=2 w=2
X72 two_stage_opamp_dummy_magic_21_0.V_source.t24 two_stage_opamp_dummy_magic_21_0.V_tail_gate.t15 GNDA.t142 GNDA.t141 sky130_fd_pr__nfet_01v8 ad=0.5 pd=2.9 as=0.5 ps=2.9 w=2.5 l=0.15
X73 two_stage_opamp_dummy_magic_21_0.VD3.t35 two_stage_opamp_dummy_magic_21_0.Vb3.t8 VDDA.t314 VDDA.t313 sky130_fd_pr__pfet_01v8 ad=0.7 pd=3.9 as=0.7 ps=3.9 w=3.5 l=0.2
X74 VOUT+.t33 two_stage_opamp_dummy_magic_21_0.cap_res_Y.t123 sky130_fd_pr__cap_mim_m3_1 l=2 w=2
X75 bgr_0.1st_Vout_1.t14 bgr_0.cap_res1.t17 sky130_fd_pr__cap_mim_m3_1 l=2 w=2
X76 two_stage_opamp_dummy_magic_21_0.VD2.t0 VIN+.t0 two_stage_opamp_dummy_magic_21_0.V_source.t0 GNDA.t0 sky130_fd_pr__nfet_01v8 ad=0.3 pd=1.9 as=0.3 ps=1.9 w=1.5 l=0.15
X77 bgr_0.V_TOP.t19 VDDA.t436 sky130_fd_pr__cap_mim_m3_1 l=2 w=2
X78 bgr_0.V_mir2.t11 bgr_0.V_mir2.t10 VDDA.t272 VDDA.t271 sky130_fd_pr__pfet_01v8 ad=0.2 pd=1.4 as=0.2 ps=1.4 w=1 l=0.2
X79 two_stage_opamp_dummy_magic_21_0.V_CMFB_S3.t16 VDDA.t422 VDDA.t424 VDDA.t423 sky130_fd_pr__pfet_01v8 ad=0.2 pd=1.4 as=0.4 ps=2.8 w=1 l=0.15
X80 VOUT-.t30 two_stage_opamp_dummy_magic_21_0.cap_res_X.t126 sky130_fd_pr__cap_mim_m3_1 l=2 w=2
X81 two_stage_opamp_dummy_magic_21_0.V_CMFB_S3.t2 bgr_0.PFET_GATE_10uA.t12 VDDA.t40 VDDA.t39 sky130_fd_pr__pfet_01v8 ad=0.2 pd=1.4 as=0.2 ps=1.4 w=1 l=0.15
X82 VDDA.t126 bgr_0.PFET_GATE_10uA.t13 two_stage_opamp_dummy_magic_21_0.V_CMFB_S3.t3 VDDA.t125 sky130_fd_pr__pfet_01v8 ad=0.2 pd=1.4 as=0.2 ps=1.4 w=1 l=0.15
X83 two_stage_opamp_dummy_magic_21_0.Vb2_2.t8 two_stage_opamp_dummy_magic_21_0.Vb2.t13 VDDA.t175 VDDA.t174 sky130_fd_pr__pfet_01v8 ad=0.36 pd=2.2 as=0.36 ps=2.2 w=1.8 l=0.2
X84 VOUT+.t34 two_stage_opamp_dummy_magic_21_0.cap_res_Y.t122 sky130_fd_pr__cap_mim_m3_1 l=2 w=2
X85 bgr_0.V_TOP.t20 VDDA.t437 sky130_fd_pr__cap_mim_m3_1 l=2 w=2
X86 GNDA.t50 two_stage_opamp_dummy_magic_21_0.V_tail_gate.t16 two_stage_opamp_dummy_magic_21_0.V_source.t23 GNDA.t49 sky130_fd_pr__nfet_01v8 ad=0.5 pd=2.9 as=0.5 ps=2.9 w=2.5 l=0.15
X87 bgr_0.1st_Vout_2.t1 bgr_0.V_CUR_REF_REG.t4 bgr_0.V_p_2.t3 GNDA.t39 sky130_fd_pr__nfet_01v8 ad=0.1 pd=0.9 as=0.1 ps=0.9 w=0.5 l=0.2
X88 VDDA.t421 VDDA.t419 two_stage_opamp_dummy_magic_21_0.V_err_p.t20 VDDA.t420 sky130_fd_pr__pfet_01v8 ad=0.2 pd=1.8 as=0.1 ps=0.9 w=0.5 l=0.15
X89 VDDA.t35 two_stage_opamp_dummy_magic_21_0.Y.t28 VOUT+.t2 VDDA.t34 sky130_fd_pr__pfet_01v8 ad=1.2 pd=6.4 as=1.2 ps=6.4 w=6 l=0.15
X90 VDDA.t418 VDDA.t416 VOUT+.t18 VDDA.t417 sky130_fd_pr__pfet_01v8 ad=2.4 pd=12.8 as=1.2 ps=6.4 w=6 l=0.15
X91 two_stage_opamp_dummy_magic_21_0.V_err_p.t0 two_stage_opamp_dummy_magic_21_0.V_tot.t4 two_stage_opamp_dummy_magic_21_0.err_amp_mir.t0 VDDA.t1 sky130_fd_pr__pfet_01v8 ad=0.1 pd=0.9 as=0.1 ps=0.9 w=0.5 l=0.15
X92 GNDA.t308 GNDA.t307 two_stage_opamp_dummy_magic_21_0.VD1.t9 GNDA.t303 sky130_fd_pr__nfet_01v8 ad=0.6 pd=3.8 as=0.3 ps=1.9 w=1.5 l=0.15
X93 VOUT-.t31 two_stage_opamp_dummy_magic_21_0.cap_res_X.t125 sky130_fd_pr__cap_mim_m3_1 l=2 w=2
X94 VOUT-.t32 two_stage_opamp_dummy_magic_21_0.cap_res_X.t124 sky130_fd_pr__cap_mim_m3_1 l=2 w=2
X95 VOUT+.t35 two_stage_opamp_dummy_magic_21_0.cap_res_Y.t121 sky130_fd_pr__cap_mim_m3_1 l=2 w=2
X96 VOUT-.t33 two_stage_opamp_dummy_magic_21_0.cap_res_X.t123 sky130_fd_pr__cap_mim_m3_1 l=2 w=2
X97 two_stage_opamp_dummy_magic_21_0.X.t1 two_stage_opamp_dummy_magic_21_0.Vb1.t15 two_stage_opamp_dummy_magic_21_0.VD1.t20 GNDA.t19 sky130_fd_pr__nfet_01v8 ad=0.3 pd=1.9 as=0.3 ps=1.9 w=1.5 l=0.15
X98 two_stage_opamp_dummy_magic_21_0.VD3.t25 two_stage_opamp_dummy_magic_21_0.VD3.t23 two_stage_opamp_dummy_magic_21_0.X.t17 two_stage_opamp_dummy_magic_21_0.VD3.t24 sky130_fd_pr__pfet_01v8 ad=1.4 pd=7.8 as=0.7 ps=3.9 w=3.5 l=0.2
X99 VOUT+.t36 two_stage_opamp_dummy_magic_21_0.cap_res_Y.t120 sky130_fd_pr__cap_mim_m3_1 l=2 w=2
X100 VOUT+.t9 a_5710_2046.t1 GNDA.t136 sky130_fd_pr__res_xhigh_po_0p35 l=2.63
X101 two_stage_opamp_dummy_magic_21_0.VD3.t34 two_stage_opamp_dummy_magic_21_0.Vb3.t9 VDDA.t312 VDDA.t311 sky130_fd_pr__pfet_01v8 ad=0.7 pd=3.9 as=0.7 ps=3.9 w=3.5 l=0.2
X102 VDDA.t467 two_stage_opamp_dummy_magic_21_0.X.t28 two_stage_opamp_dummy_magic_21_0.V_CMFB_S2.t9 GNDA.t337 sky130_fd_pr__nfet_01v8 ad=0.6 pd=3.4 as=0.6 ps=3.4 w=3 l=0.15
X103 two_stage_opamp_dummy_magic_21_0.V_b_2nd_stage.t0 a_14240_2056.t0 GNDA.t48 sky130_fd_pr__res_xhigh_po_0p35 l=2.63
X104 bgr_0.PFET_GATE_10uA.t9 bgr_0.1st_Vout_2.t13 VDDA.t94 VDDA.t93 sky130_fd_pr__pfet_01v8 ad=0.2 pd=1.4 as=0.2 ps=1.4 w=1 l=0.2
X105 GNDA.t306 GNDA.t305 two_stage_opamp_dummy_magic_21_0.VD2.t14 GNDA.t300 sky130_fd_pr__nfet_01v8 ad=0.6 pd=3.8 as=0.3 ps=1.9 w=1.5 l=0.15
X106 VOUT-.t34 two_stage_opamp_dummy_magic_21_0.cap_res_X.t122 sky130_fd_pr__cap_mim_m3_1 l=2 w=2
X107 bgr_0.V_TOP.t21 VDDA.t113 sky130_fd_pr__cap_mim_m3_1 l=2 w=2
X108 bgr_0.START_UP_NFET1.t0 bgr_0.START_UP_NFET1 GNDA.t157 GNDA.t156 sky130_fd_pr__nfet_01v8 ad=0.2 pd=1.4 as=0.4 ps=2.8 w=1 l=10
X109 two_stage_opamp_dummy_magic_21_0.Y.t0 two_stage_opamp_dummy_magic_21_0.Vb1.t16 two_stage_opamp_dummy_magic_21_0.VD2.t3 GNDA.t0 sky130_fd_pr__nfet_01v8 ad=0.3 pd=1.9 as=0.3 ps=1.9 w=1.5 l=0.15
X110 a_5190_5068.t1 two_stage_opamp_dummy_magic_21_0.V_CMFB_S4.t0 GNDA.t128 sky130_fd_pr__res_xhigh_po_0p35 l=1.75
X111 GNDA.t133 two_stage_opamp_dummy_magic_21_0.X.t29 two_stage_opamp_dummy_magic_21_0.V_CMFB_S1.t12 VDDA.t181 sky130_fd_pr__pfet_01v8 ad=0.4 pd=2.4 as=0.4 ps=2.4 w=2 l=0.15
X112 a_14560_4968.t1 two_stage_opamp_dummy_magic_21_0.V_CMFB_S2.t14 GNDA.t339 sky130_fd_pr__res_xhigh_po_0p35 l=1.75
X113 VOUT+.t37 two_stage_opamp_dummy_magic_21_0.cap_res_Y.t119 sky130_fd_pr__cap_mim_m3_1 l=2 w=2
X114 bgr_0.V_TOP.t22 VDDA.t114 sky130_fd_pr__cap_mim_m3_1 l=2 w=2
X115 GNDA.t218 bgr_0.NFET_GATE_10uA.t7 two_stage_opamp_dummy_magic_21_0.V_CMFB_S2.t12 GNDA.t217 sky130_fd_pr__nfet_01v8 ad=0.2 pd=1.4 as=0.2 ps=1.4 w=1 l=0.15
X116 two_stage_opamp_dummy_magic_21_0.V_CMFB_S2.t11 bgr_0.NFET_GATE_10uA.t8 GNDA.t216 GNDA.t215 sky130_fd_pr__nfet_01v8 ad=0.2 pd=1.4 as=0.2 ps=1.4 w=1 l=0.15
X117 two_stage_opamp_dummy_magic_21_0.err_amp_out.t2 two_stage_opamp_dummy_magic_21_0.V_err_amp_ref.t8 two_stage_opamp_dummy_magic_21_0.V_err_p.t10 VDDA.t208 sky130_fd_pr__pfet_01v8 ad=0.1 pd=0.9 as=0.1 ps=0.9 w=0.5 l=0.15
X118 VOUT-.t35 two_stage_opamp_dummy_magic_21_0.cap_res_X.t121 sky130_fd_pr__cap_mim_m3_1 l=2 w=2
X119 VOUT-.t36 two_stage_opamp_dummy_magic_21_0.cap_res_X.t120 sky130_fd_pr__cap_mim_m3_1 l=2 w=2
X120 VOUT-.t37 two_stage_opamp_dummy_magic_21_0.cap_res_X.t119 sky130_fd_pr__cap_mim_m3_1 l=2 w=2
X121 VOUT-.t38 two_stage_opamp_dummy_magic_21_0.cap_res_X.t118 sky130_fd_pr__cap_mim_m3_1 l=2 w=2
X122 VOUT-.t39 two_stage_opamp_dummy_magic_21_0.cap_res_X.t117 sky130_fd_pr__cap_mim_m3_1 l=2 w=2
X123 bgr_0.1st_Vout_2.t14 bgr_0.cap_res2.t18 sky130_fd_pr__cap_mim_m3_1 l=2 w=2
X124 GNDA.t304 GNDA.t302 two_stage_opamp_dummy_magic_21_0.X.t19 GNDA.t303 sky130_fd_pr__nfet_01v8 ad=0.6 pd=3.8 as=0.3 ps=1.9 w=1.5 l=0.15
X125 VOUT+.t38 two_stage_opamp_dummy_magic_21_0.cap_res_Y.t118 sky130_fd_pr__cap_mim_m3_1 l=2 w=2
X126 VOUT+.t39 two_stage_opamp_dummy_magic_21_0.cap_res_Y.t117 sky130_fd_pr__cap_mim_m3_1 l=2 w=2
X127 two_stage_opamp_dummy_magic_21_0.V_CMFB_S4.t9 two_stage_opamp_dummy_magic_21_0.Y.t29 VDDA.t36 GNDA.t28 sky130_fd_pr__nfet_01v8 ad=0.6 pd=3.4 as=0.6 ps=3.4 w=3 l=0.15
X128 VOUT+.t40 two_stage_opamp_dummy_magic_21_0.cap_res_Y.t116 sky130_fd_pr__cap_mim_m3_1 l=2 w=2
X129 two_stage_opamp_dummy_magic_21_0.V_err_gate.t9 two_stage_opamp_dummy_magic_21_0.V_tot.t5 a_8570_6900.t4 VDDA.t107 sky130_fd_pr__pfet_01v8 ad=0.1 pd=0.9 as=0.1 ps=0.9 w=0.5 l=0.15
X130 VOUT+.t41 two_stage_opamp_dummy_magic_21_0.cap_res_Y.t115 sky130_fd_pr__cap_mim_m3_1 l=2 w=2
X131 two_stage_opamp_dummy_magic_21_0.V_err_p.t19 VDDA.t413 VDDA.t415 VDDA.t414 sky130_fd_pr__pfet_01v8 ad=0.1 pd=0.9 as=0.2 ps=1.8 w=0.5 l=0.15
X132 VOUT+.t42 two_stage_opamp_dummy_magic_21_0.cap_res_Y.t114 sky130_fd_pr__cap_mim_m3_1 l=2 w=2
X133 a_12530_23988.t1 bgr_0.Vin-.t7 GNDA.t335 sky130_fd_pr__res_xhigh_po_0p35 l=6
X134 two_stage_opamp_dummy_magic_21_0.V_source.t22 two_stage_opamp_dummy_magic_21_0.V_tail_gate.t17 GNDA.t52 GNDA.t51 sky130_fd_pr__nfet_01v8 ad=0.5 pd=2.9 as=0.5 ps=2.9 w=2.5 l=0.15
X135 two_stage_opamp_dummy_magic_21_0.V_CMFB_S3.t13 two_stage_opamp_dummy_magic_21_0.Y.t30 GNDA.t7 VDDA.t8 sky130_fd_pr__pfet_01v8 ad=0.4 pd=2.4 as=0.4 ps=2.4 w=2 l=0.15
X136 GNDA.t301 GNDA.t299 two_stage_opamp_dummy_magic_21_0.Y.t18 GNDA.t300 sky130_fd_pr__nfet_01v8 ad=0.6 pd=3.8 as=0.3 ps=1.9 w=1.5 l=0.15
X137 two_stage_opamp_dummy_magic_21_0.VD4.t37 VDDA.t410 VDDA.t412 VDDA.t411 sky130_fd_pr__pfet_01v8 ad=0.7 pd=3.9 as=1.4 ps=7.8 w=3.5 l=0.2
X138 bgr_0.1st_Vout_2.t9 bgr_0.V_mir2.t18 VDDA.t240 VDDA.t239 sky130_fd_pr__pfet_01v8 ad=0.2 pd=1.4 as=0.2 ps=1.4 w=1 l=0.2
X139 two_stage_opamp_dummy_magic_21_0.VD4.t21 two_stage_opamp_dummy_magic_21_0.Vb2.t14 two_stage_opamp_dummy_magic_21_0.Y.t24 two_stage_opamp_dummy_magic_21_0.VD4.t20 sky130_fd_pr__pfet_01v8 ad=0.7 pd=3.9 as=0.7 ps=3.9 w=3.5 l=0.2
X140 VOUT-.t40 two_stage_opamp_dummy_magic_21_0.cap_res_X.t116 sky130_fd_pr__cap_mim_m3_1 l=2 w=2
X141 GNDA.t32 two_stage_opamp_dummy_magic_21_0.V_tail_gate.t18 two_stage_opamp_dummy_magic_21_0.V_source.t21 GNDA.t31 sky130_fd_pr__nfet_01v8 ad=0.5 pd=2.9 as=0.5 ps=2.9 w=2.5 l=0.15
X142 VDDA.t16 two_stage_opamp_dummy_magic_21_0.V_err_gate.t14 two_stage_opamp_dummy_magic_21_0.V_err_p.t3 VDDA.t15 sky130_fd_pr__pfet_01v8 ad=0.1 pd=0.9 as=0.1 ps=0.9 w=0.5 l=0.15
X143 VOUT-.t41 two_stage_opamp_dummy_magic_21_0.cap_res_X.t115 sky130_fd_pr__cap_mim_m3_1 l=2 w=2
X144 bgr_0.1st_Vout_2.t15 bgr_0.cap_res2.t17 sky130_fd_pr__cap_mim_m3_1 l=2 w=2
X145 two_stage_opamp_dummy_magic_21_0.VD3.t33 two_stage_opamp_dummy_magic_21_0.Vb3.t10 VDDA.t310 VDDA.t309 sky130_fd_pr__pfet_01v8 ad=0.7 pd=3.9 as=0.7 ps=3.9 w=3.5 l=0.2
X146 VDDA.t109 two_stage_opamp_dummy_magic_21_0.V_err_gate.t15 a_8570_6900.t19 VDDA.t108 sky130_fd_pr__pfet_01v8 ad=0.1 pd=0.9 as=0.1 ps=0.9 w=0.5 l=0.15
X147 VDDA.t409 VDDA.t406 VDDA.t408 VDDA.t407 sky130_fd_pr__pfet_01v8 ad=0.72 pd=4.4 as=0 ps=0 w=1.8 l=0.2
X148 VOUT-.t42 two_stage_opamp_dummy_magic_21_0.cap_res_X.t114 sky130_fd_pr__cap_mim_m3_1 l=2 w=2
X149 VOUT+.t43 two_stage_opamp_dummy_magic_21_0.cap_res_Y.t113 sky130_fd_pr__cap_mim_m3_1 l=2 w=2
X150 VDDA.t10 two_stage_opamp_dummy_magic_21_0.Y.t31 VOUT+.t0 VDDA.t9 sky130_fd_pr__pfet_01v8 ad=1.2 pd=6.4 as=1.2 ps=6.4 w=6 l=0.15
X151 two_stage_opamp_dummy_magic_21_0.V_source.t40 VIN-.t1 two_stage_opamp_dummy_magic_21_0.VD1.t11 GNDA.t36 sky130_fd_pr__nfet_01v8 ad=0.3 pd=1.9 as=0.3 ps=1.9 w=1.5 l=0.15
X152 VOUT-.t43 two_stage_opamp_dummy_magic_21_0.cap_res_X.t113 sky130_fd_pr__cap_mim_m3_1 l=2 w=2
X153 VOUT+.t44 two_stage_opamp_dummy_magic_21_0.cap_res_Y.t112 sky130_fd_pr__cap_mim_m3_1 l=2 w=2
X154 VOUT+.t45 two_stage_opamp_dummy_magic_21_0.cap_res_Y.t111 sky130_fd_pr__cap_mim_m3_1 l=2 w=2
X155 bgr_0.1st_Vout_1.t15 bgr_0.cap_res1.t16 sky130_fd_pr__cap_mim_m3_1 l=2 w=2
X156 bgr_0.V_mir1.t3 bgr_0.Vin-.t8 bgr_0.V_p_1.t4 GNDA.t44 sky130_fd_pr__nfet_01v8 ad=0.1 pd=0.9 as=0.1 ps=0.9 w=0.5 l=0.2
X157 bgr_0.V_mir1.t15 bgr_0.V_mir1.t14 VDDA.t453 VDDA.t452 sky130_fd_pr__pfet_01v8 ad=0.2 pd=1.4 as=0.2 ps=1.4 w=1 l=0.2
X158 GNDA.t34 two_stage_opamp_dummy_magic_21_0.V_tail_gate.t19 two_stage_opamp_dummy_magic_21_0.V_source.t20 GNDA.t33 sky130_fd_pr__nfet_01v8 ad=0.5 pd=2.9 as=0.5 ps=2.9 w=2.5 l=0.15
X159 a_14680_4968.t0 two_stage_opamp_dummy_magic_21_0.V_tot.t1 GNDA.t20 sky130_fd_pr__res_xhigh_po_0p35 l=1.75
X160 VDDA.t199 two_stage_opamp_dummy_magic_21_0.X.t30 two_stage_opamp_dummy_magic_21_0.V_CMFB_S2.t8 GNDA.t147 sky130_fd_pr__nfet_01v8 ad=0.6 pd=3.4 as=0.6 ps=3.4 w=3 l=0.15
X161 GNDA.t332 a_7580_22380.t1 GNDA.t16 sky130_fd_pr__res_xhigh_po_0p35 l=6
X162 GNDA.t160 two_stage_opamp_dummy_magic_21_0.Y.t32 two_stage_opamp_dummy_magic_21_0.V_CMFB_S3.t12 VDDA.t219 sky130_fd_pr__pfet_01v8 ad=0.4 pd=2.4 as=0.4 ps=2.4 w=2 l=0.15
X163 two_stage_opamp_dummy_magic_21_0.V_source.t37 VIN+.t1 two_stage_opamp_dummy_magic_21_0.VD2.t17 GNDA.t124 sky130_fd_pr__nfet_01v8 ad=0.3 pd=1.9 as=0.3 ps=1.9 w=1.5 l=0.15
X164 VOUT-.t44 two_stage_opamp_dummy_magic_21_0.cap_res_X.t112 sky130_fd_pr__cap_mim_m3_1 l=2 w=2
X165 VOUT-.t45 two_stage_opamp_dummy_magic_21_0.cap_res_X.t111 sky130_fd_pr__cap_mim_m3_1 l=2 w=2
X166 VOUT+.t46 two_stage_opamp_dummy_magic_21_0.cap_res_Y.t110 sky130_fd_pr__cap_mim_m3_1 l=2 w=2
X167 VOUT-.t46 two_stage_opamp_dummy_magic_21_0.cap_res_X.t110 sky130_fd_pr__cap_mim_m3_1 l=2 w=2
X168 VOUT-.t47 two_stage_opamp_dummy_magic_21_0.cap_res_X.t109 sky130_fd_pr__cap_mim_m3_1 l=2 w=2
X169 VDDA.t104 bgr_0.PFET_GATE_10uA.t14 two_stage_opamp_dummy_magic_21_0.Vb1.t1 VDDA.t103 sky130_fd_pr__pfet_01v8 ad=0.2 pd=1.4 as=0.2 ps=1.4 w=1 l=0.15
X170 VOUT-.t48 two_stage_opamp_dummy_magic_21_0.cap_res_X.t108 sky130_fd_pr__cap_mim_m3_1 l=2 w=2
X171 two_stage_opamp_dummy_magic_21_0.VD4.t19 two_stage_opamp_dummy_magic_21_0.Vb2.t15 two_stage_opamp_dummy_magic_21_0.Y.t16 two_stage_opamp_dummy_magic_21_0.VD4.t18 sky130_fd_pr__pfet_01v8 ad=0.7 pd=3.9 as=0.7 ps=3.9 w=3.5 l=0.2
X172 two_stage_opamp_dummy_magic_21_0.Vb1.t11 two_stage_opamp_dummy_magic_21_0.Vb1.t10 a_9370_2200.t4 GNDA.t327 sky130_fd_pr__nfet_01v8 ad=0.3 pd=1.9 as=0.3 ps=1.9 w=1.5 l=0.15
X173 GNDA.t330 two_stage_opamp_dummy_magic_21_0.X.t31 two_stage_opamp_dummy_magic_21_0.V_CMFB_S1.t11 VDDA.t456 sky130_fd_pr__pfet_01v8 ad=0.4 pd=2.4 as=0.4 ps=2.4 w=2 l=0.15
X174 bgr_0.V_TOP.t23 VDDA.t115 sky130_fd_pr__cap_mim_m3_1 l=2 w=2
X175 VDDA.t405 VDDA.t403 two_stage_opamp_dummy_magic_21_0.V_CMFB_S1.t15 VDDA.t404 sky130_fd_pr__pfet_01v8 ad=0.4 pd=2.8 as=0.2 ps=1.4 w=1 l=0.15
X176 GNDA.t336 two_stage_opamp_dummy_magic_21_0.X.t32 two_stage_opamp_dummy_magic_21_0.V_CMFB_S1.t10 VDDA.t466 sky130_fd_pr__pfet_01v8 ad=0.4 pd=2.4 as=0.4 ps=2.4 w=2 l=0.15
X177 VOUT-.t49 two_stage_opamp_dummy_magic_21_0.cap_res_X.t107 sky130_fd_pr__cap_mim_m3_1 l=2 w=2
X178 VOUT-.t50 two_stage_opamp_dummy_magic_21_0.cap_res_X.t106 sky130_fd_pr__cap_mim_m3_1 l=2 w=2
X179 two_stage_opamp_dummy_magic_21_0.V_source.t19 two_stage_opamp_dummy_magic_21_0.V_tail_gate.t20 GNDA.t84 GNDA.t83 sky130_fd_pr__nfet_01v8 ad=0.5 pd=2.9 as=0.5 ps=2.9 w=2.5 l=0.15
X180 two_stage_opamp_dummy_magic_21_0.V_CMFB_S1.t3 bgr_0.PFET_GATE_10uA.t15 VDDA.t98 VDDA.t97 sky130_fd_pr__pfet_01v8 ad=0.2 pd=1.4 as=0.2 ps=1.4 w=1 l=0.15
X181 VOUT+.t47 two_stage_opamp_dummy_magic_21_0.cap_res_Y.t109 sky130_fd_pr__cap_mim_m3_1 l=2 w=2
X182 VOUT+.t48 two_stage_opamp_dummy_magic_21_0.cap_res_Y.t108 sky130_fd_pr__cap_mim_m3_1 l=2 w=2
X183 bgr_0.V_mir1.t16 bgr_0.Vin-.t9 bgr_0.V_p_1.t3 GNDA.t319 sky130_fd_pr__nfet_01v8 ad=0.1 pd=0.9 as=0.1 ps=0.9 w=0.5 l=0.2
X184 VOUT+.t49 two_stage_opamp_dummy_magic_21_0.cap_res_Y.t107 sky130_fd_pr__cap_mim_m3_1 l=2 w=2
X185 two_stage_opamp_dummy_magic_21_0.Vb2.t10 two_stage_opamp_dummy_magic_21_0.Vb2_2.t3 two_stage_opamp_dummy_magic_21_0.Vb2_2.t5 two_stage_opamp_dummy_magic_21_0.Vb2_2.t4 sky130_fd_pr__pfet_01v8 ad=0.7 pd=3.9 as=1.4 ps=7.8 w=3.5 l=0.2
X186 VOUT+.t50 two_stage_opamp_dummy_magic_21_0.cap_res_Y.t106 sky130_fd_pr__cap_mim_m3_1 l=2 w=2
X187 two_stage_opamp_dummy_magic_21_0.VD1.t19 two_stage_opamp_dummy_magic_21_0.Vb1.t17 two_stage_opamp_dummy_magic_21_0.X.t2 GNDA.t36 sky130_fd_pr__nfet_01v8 ad=0.3 pd=1.9 as=0.3 ps=1.9 w=1.5 l=0.15
X188 VDDA.t308 two_stage_opamp_dummy_magic_21_0.Vb3.t11 two_stage_opamp_dummy_magic_21_0.VD3.t32 VDDA.t307 sky130_fd_pr__pfet_01v8 ad=0.7 pd=3.9 as=0.7 ps=3.9 w=3.5 l=0.2
X189 VOUT-.t3 two_stage_opamp_dummy_magic_21_0.X.t33 VDDA.t180 VDDA.t179 sky130_fd_pr__pfet_01v8 ad=1.2 pd=6.4 as=1.2 ps=6.4 w=6 l=0.15
X190 bgr_0.START_UP.t2 bgr_0.V_TOP.t24 VDDA.t117 VDDA.t116 sky130_fd_pr__pfet_01v8 ad=0.6 pd=3.4 as=0.6 ps=3.4 w=3 l=0.5
X191 bgr_0.PFET_GATE_10uA.t8 bgr_0.1st_Vout_2.t16 VDDA.t169 VDDA.t168 sky130_fd_pr__pfet_01v8 ad=0.2 pd=1.4 as=0.2 ps=1.4 w=1 l=0.2
X192 VDDA.t42 bgr_0.V_mir1.t18 bgr_0.1st_Vout_1.t4 VDDA.t41 sky130_fd_pr__pfet_01v8 ad=0.2 pd=1.4 as=0.2 ps=1.4 w=1 l=0.2
X193 two_stage_opamp_dummy_magic_21_0.V_err_gate.t7 two_stage_opamp_dummy_magic_21_0.V_err_amp_ref.t9 a_8570_6900.t9 VDDA.t209 sky130_fd_pr__pfet_01v8 ad=0.1 pd=0.9 as=0.1 ps=0.9 w=0.5 l=0.15
X194 VOUT+.t51 two_stage_opamp_dummy_magic_21_0.cap_res_Y.t105 sky130_fd_pr__cap_mim_m3_1 l=2 w=2
X195 VOUT-.t51 two_stage_opamp_dummy_magic_21_0.cap_res_X.t105 sky130_fd_pr__cap_mim_m3_1 l=2 w=2
X196 a_8570_6900.t18 two_stage_opamp_dummy_magic_21_0.V_err_gate.t16 VDDA.t140 VDDA.t139 sky130_fd_pr__pfet_01v8 ad=0.1 pd=0.9 as=0.1 ps=0.9 w=0.5 l=0.15
X197 VOUT-.t52 two_stage_opamp_dummy_magic_21_0.cap_res_X.t104 sky130_fd_pr__cap_mim_m3_1 l=2 w=2
X198 two_stage_opamp_dummy_magic_21_0.V_source.t18 two_stage_opamp_dummy_magic_21_0.V_tail_gate.t21 GNDA.t86 GNDA.t85 sky130_fd_pr__nfet_01v8 ad=0.5 pd=2.9 as=0.5 ps=2.9 w=2.5 l=0.15
X199 two_stage_opamp_dummy_magic_21_0.Vb2.t7 bgr_0.NFET_GATE_10uA.t9 GNDA.t214 GNDA.t213 sky130_fd_pr__nfet_01v8 ad=0.2 pd=1.4 as=0.2 ps=1.4 w=1 l=0.15
X200 two_stage_opamp_dummy_magic_21_0.VD2.t7 two_stage_opamp_dummy_magic_21_0.Vb1.t18 two_stage_opamp_dummy_magic_21_0.Y.t4 GNDA.t124 sky130_fd_pr__nfet_01v8 ad=0.3 pd=1.9 as=0.3 ps=1.9 w=1.5 l=0.15
X201 GNDA.t212 bgr_0.NFET_GATE_10uA.t10 two_stage_opamp_dummy_magic_21_0.Vb2.t6 GNDA.t211 sky130_fd_pr__nfet_01v8 ad=0.2 pd=1.4 as=0.2 ps=1.4 w=1 l=0.15
X202 VDDA.t402 VDDA.t400 two_stage_opamp_dummy_magic_21_0.Vb2_2.t9 VDDA.t401 sky130_fd_pr__pfet_01v8 ad=0.72 pd=4.4 as=0.36 ps=2.2 w=1.8 l=0.2
X203 VOUT+.t52 two_stage_opamp_dummy_magic_21_0.cap_res_Y.t104 sky130_fd_pr__cap_mim_m3_1 l=2 w=2
X204 bgr_0.V_TOP.t25 VDDA.t118 sky130_fd_pr__cap_mim_m3_1 l=2 w=2
X205 GNDA.t210 bgr_0.NFET_GATE_10uA.t11 two_stage_opamp_dummy_magic_21_0.Vb2.t5 GNDA.t209 sky130_fd_pr__nfet_01v8 ad=0.2 pd=1.4 as=0.2 ps=1.4 w=1 l=0.15
X206 VOUT+.t53 two_stage_opamp_dummy_magic_21_0.cap_res_Y.t103 sky130_fd_pr__cap_mim_m3_1 l=2 w=2
X207 VOUT-.t53 two_stage_opamp_dummy_magic_21_0.cap_res_X.t103 sky130_fd_pr__cap_mim_m3_1 l=2 w=2
X208 VOUT+.t54 two_stage_opamp_dummy_magic_21_0.cap_res_Y.t102 sky130_fd_pr__cap_mim_m3_1 l=2 w=2
X209 VOUT+.t55 two_stage_opamp_dummy_magic_21_0.cap_res_Y.t101 sky130_fd_pr__cap_mim_m3_1 l=2 w=2
X210 VDDA.t244 two_stage_opamp_dummy_magic_21_0.V_err_gate.t17 a_8570_6900.t17 VDDA.t243 sky130_fd_pr__pfet_01v8 ad=0.1 pd=0.9 as=0.1 ps=0.9 w=0.5 l=0.15
X211 VOUT+.t56 two_stage_opamp_dummy_magic_21_0.cap_res_Y.t100 sky130_fd_pr__cap_mim_m3_1 l=2 w=2
X212 GNDA.t97 two_stage_opamp_dummy_magic_21_0.V_tail_gate.t22 two_stage_opamp_dummy_magic_21_0.V_source.t17 GNDA.t96 sky130_fd_pr__nfet_01v8 ad=0.5 pd=2.9 as=0.5 ps=2.9 w=2.5 l=0.15
X213 VDDA.t120 bgr_0.V_TOP.t26 bgr_0.Vin+.t2 VDDA.t119 sky130_fd_pr__pfet_01v8 ad=0.6 pd=3.4 as=0.6 ps=3.4 w=3 l=0.5
X214 VDDA.t221 two_stage_opamp_dummy_magic_21_0.Y.t33 VOUT+.t14 VDDA.t220 sky130_fd_pr__pfet_01v8 ad=1.2 pd=6.4 as=1.2 ps=6.4 w=6 l=0.15
X215 bgr_0.1st_Vout_2.t10 bgr_0.V_mir2.t19 VDDA.t270 VDDA.t269 sky130_fd_pr__pfet_01v8 ad=0.2 pd=1.4 as=0.2 ps=1.4 w=1 l=0.2
X216 VDDA.t306 two_stage_opamp_dummy_magic_21_0.Vb3.t12 two_stage_opamp_dummy_magic_21_0.VD3.t31 VDDA.t305 sky130_fd_pr__pfet_01v8 ad=0.7 pd=3.9 as=0.7 ps=3.9 w=3.5 l=0.2
X217 bgr_0.V_TOP.t6 bgr_0.1st_Vout_1.t16 VDDA.t256 VDDA.t255 sky130_fd_pr__pfet_01v8 ad=0.2 pd=1.4 as=0.2 ps=1.4 w=1 l=0.2
X218 bgr_0.V_CUR_REF_REG.t2 VDDA.t397 VDDA.t399 VDDA.t398 sky130_fd_pr__pfet_01v8 ad=0.2 pd=1.4 as=0.4 ps=2.8 w=1 l=0.15
X219 two_stage_opamp_dummy_magic_21_0.VD4.t5 two_stage_opamp_dummy_magic_21_0.VD4.t3 two_stage_opamp_dummy_magic_21_0.Y.t11 two_stage_opamp_dummy_magic_21_0.VD4.t4 sky130_fd_pr__pfet_01v8 ad=1.4 pd=7.8 as=0.7 ps=3.9 w=3.5 l=0.2
X220 VOUT-.t54 two_stage_opamp_dummy_magic_21_0.cap_res_X.t102 sky130_fd_pr__cap_mim_m3_1 l=2 w=2
X221 VOUT-.t55 two_stage_opamp_dummy_magic_21_0.cap_res_X.t101 sky130_fd_pr__cap_mim_m3_1 l=2 w=2
X222 VOUT-.t56 two_stage_opamp_dummy_magic_21_0.cap_res_X.t100 sky130_fd_pr__cap_mim_m3_1 l=2 w=2
X223 VOUT+.t57 two_stage_opamp_dummy_magic_21_0.cap_res_Y.t99 sky130_fd_pr__cap_mim_m3_1 l=2 w=2
X224 two_stage_opamp_dummy_magic_21_0.V_tail_gate.t2 bgr_0.PFET_GATE_10uA.t16 VDDA.t129 VDDA.t128 sky130_fd_pr__pfet_01v8 ad=0.2 pd=1.4 as=0.2 ps=1.4 w=1 l=0.15
X225 VOUT-.t57 two_stage_opamp_dummy_magic_21_0.cap_res_X.t99 sky130_fd_pr__cap_mim_m3_1 l=2 w=2
X226 VOUT+.t13 two_stage_opamp_dummy_magic_21_0.V_b_2nd_stage.t3 GNDA.t30 GNDA.t29 sky130_fd_pr__nfet_01v8 ad=1.4 pd=7.4 as=1.4 ps=7.4 w=7 l=0.6
X227 two_stage_opamp_dummy_magic_21_0.V_source.t28 VIN+.t2 two_stage_opamp_dummy_magic_21_0.VD2.t5 GNDA.t107 sky130_fd_pr__nfet_01v8 ad=0.3 pd=1.9 as=0.3 ps=1.9 w=1.5 l=0.15
X228 VOUT+.t58 two_stage_opamp_dummy_magic_21_0.cap_res_Y.t98 sky130_fd_pr__cap_mim_m3_1 l=2 w=2
X229 GNDA.t111 two_stage_opamp_dummy_magic_21_0.Y.t34 two_stage_opamp_dummy_magic_21_0.V_CMFB_S3.t11 VDDA.t137 sky130_fd_pr__pfet_01v8 ad=0.4 pd=2.4 as=0.4 ps=2.4 w=2 l=0.15