* PEX produced on Tue Jul 15 03:05:21 PM CEST 2025 using /foss/tools/osic-multitool/iic-pex.sh with m=3 and s=1
* NGSPICE file created from bgr_opamp_dummy_magic_12.ext - technology: sky130A

.subckt bgr_opamp_dummy_magic_12 VDDA GNDA VOUT+ VOUT- VIN+ VIN-
X0 GNDA.t189 bgr_7_0.NFET_GATE_10uA.t5 two_stage_opamp_dummy_magic_14_0.Vb3.t1 GNDA.t188 sky130_fd_pr__nfet_01v8 ad=0.2 pd=1.4 as=0.2 ps=1.4 w=1 l=0.15
X1 bgr_7_0.V_TOP.t9 VDDA.t289 VDDA.t291 VDDA.t290 sky130_fd_pr__pfet_01v8 ad=0.2 pd=1.4 as=0.45 ps=2.9 w=1 l=0.15
X2 VOUT-.t19 two_stage_opamp_dummy_magic_14_0.cap_res_X.t137 sky130_fd_pr__cap_mim_m3_1 l=2 w=2
X3 two_stage_opamp_dummy_magic_14_0.err_amp_mir.t2 GNDA.t284 GNDA.t285 GNDA.t133 sky130_fd_pr__nfet_01v8 ad=0.5 pd=2.9 as=1 ps=5.8 w=2.5 l=0.15
X4 GNDA.t6 two_stage_opamp_dummy_magic_14_0.V_tail_gate.t8 two_stage_opamp_dummy_magic_14_0.V_source.t29 GNDA.t5 sky130_fd_pr__nfet_01v8 ad=0.5 pd=2.9 as=0.5 ps=2.9 w=2.5 l=0.15
X5 VOUT+.t19 two_stage_opamp_dummy_magic_14_0.cap_res_Y.t138 sky130_fd_pr__cap_mim_m3_1 l=2 w=2
X6 VDDA.t78 two_stage_opamp_dummy_magic_14_0.X.t25 two_stage_opamp_dummy_magic_14_0.V_CMFB_S2.t9 GNDA.t61 sky130_fd_pr__nfet_01v8 ad=0.6 pd=3.4 as=0.6 ps=3.4 w=3 l=0.15
X7 VOUT+.t20 two_stage_opamp_dummy_magic_14_0.cap_res_Y.t137 sky130_fd_pr__cap_mim_m3_1 l=2 w=2
X8 GNDA.t95 two_stage_opamp_dummy_magic_14_0.V_b_2nd_stage.t2 VOUT-.t3 GNDA.t94 sky130_fd_pr__nfet_01v8 ad=1.4 pd=7.4 as=1.4 ps=7.4 w=7 l=0.6
X9 VDDA.t83 bgr_7_0.V_TOP.t14 two_stage_opamp_dummy_magic_14_0.V_err_amp_ref.t6 VDDA.t82 sky130_fd_pr__pfet_01v8 ad=0.6 pd=3.4 as=0.6 ps=3.4 w=3 l=0.5
X10 VDDA.t288 VDDA.t286 two_stage_opamp_dummy_magic_14_0.err_amp_out.t0 VDDA.t287 sky130_fd_pr__pfet_01v8 ad=1 pd=5.8 as=0.5 ps=2.9 w=2.5 l=0.15
X11 VOUT+.t21 two_stage_opamp_dummy_magic_14_0.cap_res_Y.t136 sky130_fd_pr__cap_mim_m3_1 l=2 w=2
X12 GNDA.t283 GNDA.t281 VDDA.t361 GNDA.t282 sky130_fd_pr__nfet_01v8 ad=1.2 pd=6.8 as=0.6 ps=3.4 w=3 l=0.15
X13 bgr_7_0.Vin+.t5 bgr_7_0.V_TOP.t15 VDDA.t74 VDDA.t73 sky130_fd_pr__pfet_01v8 ad=0.6 pd=3.4 as=0.6 ps=3.4 w=3 l=0.5
X14 two_stage_opamp_dummy_magic_14_0.V_CMFB_S1.t16 two_stage_opamp_dummy_magic_14_0.X.t26 GNDA.t305 VDDA.t398 sky130_fd_pr__pfet_01v8 ad=0.4 pd=2.4 as=0.4 ps=2.4 w=2 l=0.15
X15 VDDA.t135 bgr_7_0.V_mir1.t17 bgr_7_0.1st_Vout_1.t5 VDDA.t134 sky130_fd_pr__pfet_01v8 ad=0.2 pd=1.4 as=0.2 ps=1.4 w=1 l=0.2
X16 VOUT+.t22 two_stage_opamp_dummy_magic_14_0.cap_res_Y.t135 sky130_fd_pr__cap_mim_m3_1 l=2 w=2
X17 bgr_7_0.1st_Vout_2.t11 bgr_7_0.cap_res2.t19 sky130_fd_pr__cap_mim_m3_1 l=2 w=2
X18 two_stage_opamp_dummy_magic_14_0.X.t22 two_stage_opamp_dummy_magic_14_0.Vb2.t11 two_stage_opamp_dummy_magic_14_0.VD3.t19 two_stage_opamp_dummy_magic_14_0.VD3.t18 sky130_fd_pr__pfet_01v8 ad=0.7 pd=3.9 as=0.7 ps=3.9 w=3.5 l=0.2
X19 GNDA.t42 two_stage_opamp_dummy_magic_14_0.Y.t25 two_stage_opamp_dummy_magic_14_0.V_CMFB_S3.t9 VDDA.t56 sky130_fd_pr__pfet_01v8 ad=0.4 pd=2.4 as=0.4 ps=2.4 w=2 l=0.15
X20 VOUT+.t23 two_stage_opamp_dummy_magic_14_0.cap_res_Y.t134 sky130_fd_pr__cap_mim_m3_1 l=2 w=2
X21 bgr_7_0.1st_Vout_2.t2 bgr_7_0.V_CUR_REF_REG.t3 bgr_7_0.V_p_2.t4 GNDA.t47 sky130_fd_pr__nfet_01v8 ad=0.1 pd=0.9 as=0.1 ps=0.9 w=0.5 l=0.2
X22 VOUT+.t24 two_stage_opamp_dummy_magic_14_0.cap_res_Y.t133 sky130_fd_pr__cap_mim_m3_1 l=2 w=2
X23 VOUT+.t25 two_stage_opamp_dummy_magic_14_0.cap_res_Y.t132 sky130_fd_pr__cap_mim_m3_1 l=2 w=2
X24 a_7460_23988.t0 bgr_7_0.Vin+.t0 GNDA.t0 sky130_fd_pr__res_xhigh_po_0p35 l=6
X25 two_stage_opamp_dummy_magic_14_0.VD2.t16 GNDA.t279 GNDA.t280 GNDA.t194 sky130_fd_pr__nfet_01v8 ad=0.3 pd=1.9 as=0.6 ps=3.8 w=1.5 l=0.15
X26 VDDA.t309 two_stage_opamp_dummy_magic_14_0.V_err_gate.t6 two_stage_opamp_dummy_magic_14_0.V_err_mir_p.t2 VDDA.t308 sky130_fd_pr__pfet_01v8 ad=0.5 pd=2.9 as=0.5 ps=2.9 w=2.5 l=0.15
X27 two_stage_opamp_dummy_magic_14_0.VD1.t13 two_stage_opamp_dummy_magic_14_0.Vb1.t12 two_stage_opamp_dummy_magic_14_0.X.t1 GNDA.t10 sky130_fd_pr__nfet_01v8 ad=0.3 pd=1.9 as=0.3 ps=1.9 w=1.5 l=0.15
X28 two_stage_opamp_dummy_magic_14_0.V_tail_gate.t5 GNDA.t277 GNDA.t278 GNDA.t133 sky130_fd_pr__nfet_01v8 ad=0.3 pd=1.9 as=0.6 ps=3.8 w=1.5 l=0.15
X29 VOUT+.t26 two_stage_opamp_dummy_magic_14_0.cap_res_Y.t131 sky130_fd_pr__cap_mim_m3_1 l=2 w=2
X30 two_stage_opamp_dummy_magic_14_0.VD1.t12 two_stage_opamp_dummy_magic_14_0.Vb1.t13 two_stage_opamp_dummy_magic_14_0.X.t18 GNDA.t73 sky130_fd_pr__nfet_01v8 ad=0.3 pd=1.9 as=0.3 ps=1.9 w=1.5 l=0.15
X31 bgr_7_0.1st_Vout_2.t12 bgr_7_0.cap_res2.t18 sky130_fd_pr__cap_mim_m3_1 l=2 w=2
X32 two_stage_opamp_dummy_magic_14_0.VD2.t5 two_stage_opamp_dummy_magic_14_0.Vb1.t14 two_stage_opamp_dummy_magic_14_0.Y.t13 GNDA.t23 sky130_fd_pr__nfet_01v8 ad=0.3 pd=1.9 as=0.3 ps=1.9 w=1.5 l=0.15
X33 GNDA.t308 a_6930_22564.t0 GNDA.t12 sky130_fd_pr__res_xhigh_po_0p35 l=4.33
X34 VDDA.t285 VDDA.t283 VDDA.t285 VDDA.t284 sky130_fd_pr__pfet_01v8 ad=0.4 pd=2.4 as=0 ps=0 w=2 l=0.15
X35 GNDA.t276 GNDA.t275 two_stage_opamp_dummy_magic_14_0.Y.t23 GNDA.t270 sky130_fd_pr__nfet_01v8 ad=0.6 pd=3.8 as=0.3 ps=1.9 w=1.5 l=0.15
X36 VDDA.t303 bgr_7_0.PFET_GATE_10uA.t10 two_stage_opamp_dummy_magic_14_0.V_tail_gate.t2 VDDA.t302 sky130_fd_pr__pfet_01v8 ad=0.4 pd=2.4 as=0.4 ps=2.4 w=2 l=0.15
X37 VOUT-.t20 two_stage_opamp_dummy_magic_14_0.cap_res_X.t136 sky130_fd_pr__cap_mim_m3_1 l=2 w=2
X38 VOUT-.t21 two_stage_opamp_dummy_magic_14_0.cap_res_X.t135 sky130_fd_pr__cap_mim_m3_1 l=2 w=2
X39 VOUT-.t22 two_stage_opamp_dummy_magic_14_0.cap_res_X.t134 sky130_fd_pr__cap_mim_m3_1 l=2 w=2
X40 VOUT+.t27 two_stage_opamp_dummy_magic_14_0.cap_res_Y.t130 sky130_fd_pr__cap_mim_m3_1 l=2 w=2
X41 bgr_7_0.1st_Vout_1.t11 bgr_7_0.cap_res1.t20 sky130_fd_pr__cap_mim_m3_1 l=2 w=2
X42 bgr_7_0.1st_Vout_2.t4 bgr_7_0.V_mir2.t17 VDDA.t96 VDDA.t95 sky130_fd_pr__pfet_01v8 ad=0.2 pd=1.4 as=0.2 ps=1.4 w=1 l=0.2
X43 VDDA.t76 bgr_7_0.V_TOP.t16 bgr_7_0.Vin-.t6 VDDA.t75 sky130_fd_pr__pfet_01v8 ad=0.6 pd=3.4 as=0.6 ps=3.4 w=3 l=0.5
X44 bgr_7_0.1st_Vout_1.t8 bgr_7_0.Vin+.t6 bgr_7_0.V_p_1.t10 GNDA.t38 sky130_fd_pr__nfet_01v8 ad=0.1 pd=0.9 as=0.1 ps=0.9 w=0.5 l=0.2
X45 GNDA.t148 VDDA.t412 bgr_7_0.V_p_2.t5 GNDA.t147 sky130_fd_pr__nfet_01v8 ad=1 pd=5.8 as=1 ps=5.8 w=2.5 l=5
X46 two_stage_opamp_dummy_magic_14_0.V_CMFB_S2.t8 two_stage_opamp_dummy_magic_14_0.X.t27 VDDA.t32 GNDA.t32 sky130_fd_pr__nfet_01v8 ad=0.6 pd=3.4 as=0.6 ps=3.4 w=3 l=0.15
X47 VOUT+.t28 two_stage_opamp_dummy_magic_14_0.cap_res_Y.t129 sky130_fd_pr__cap_mim_m3_1 l=2 w=2
X48 bgr_7_0.cap_res2.t20 bgr_7_0.PFET_GATE_10uA.t6 GNDA.t124 sky130_fd_pr__res_high_po_0p35 l=2.05
X49 bgr_7_0.1st_Vout_1.t12 bgr_7_0.cap_res1.t19 sky130_fd_pr__cap_mim_m3_1 l=2 w=2
X50 VOUT-.t0 two_stage_opamp_dummy_magic_14_0.X.t28 VDDA.t15 VDDA.t14 sky130_fd_pr__pfet_01v8 ad=1.2 pd=6.4 as=1.2 ps=6.4 w=6 l=0.15
X51 two_stage_opamp_dummy_magic_14_0.V_source.t2 VIN-.t0 two_stage_opamp_dummy_magic_14_0.VD1.t2 GNDA.t21 sky130_fd_pr__nfet_01v8 ad=0.3 pd=1.9 as=0.3 ps=1.9 w=1.5 l=0.15
X52 VOUT+.t29 two_stage_opamp_dummy_magic_14_0.cap_res_Y.t128 sky130_fd_pr__cap_mim_m3_1 l=2 w=2
X53 VOUT-.t23 two_stage_opamp_dummy_magic_14_0.cap_res_X.t133 sky130_fd_pr__cap_mim_m3_1 l=2 w=2
X54 two_stage_opamp_dummy_magic_14_0.V_source.t34 two_stage_opamp_dummy_magic_14_0.Vb1.t15 two_stage_opamp_dummy_magic_14_0.Vb1_2.t4 GNDA.t287 sky130_fd_pr__nfet_01v8 ad=0.6 pd=3.8 as=0.6 ps=3.8 w=1.5 l=3
X55 two_stage_opamp_dummy_magic_14_0.VD4.t37 two_stage_opamp_dummy_magic_14_0.Vb3.t8 VDDA.t357 VDDA.t356 sky130_fd_pr__pfet_01v8 ad=0.7 pd=3.9 as=0.7 ps=3.9 w=3.5 l=0.2
X56 two_stage_opamp_dummy_magic_14_0.V_source.t38 VIN+.t0 two_stage_opamp_dummy_magic_14_0.VD2.t20 GNDA.t96 sky130_fd_pr__nfet_01v8 ad=0.3 pd=1.9 as=0.3 ps=1.9 w=1.5 l=0.15
X57 VOUT-.t24 two_stage_opamp_dummy_magic_14_0.cap_res_X.t132 sky130_fd_pr__cap_mim_m3_1 l=2 w=2
X58 VOUT-.t25 two_stage_opamp_dummy_magic_14_0.cap_res_X.t131 sky130_fd_pr__cap_mim_m3_1 l=2 w=2
X59 VDDA.t36 two_stage_opamp_dummy_magic_14_0.Y.t26 VOUT+.t1 VDDA.t35 sky130_fd_pr__pfet_01v8 ad=1.2 pd=6.4 as=1.2 ps=6.4 w=6 l=0.15
X60 two_stage_opamp_dummy_magic_14_0.err_amp_out.t2 two_stage_opamp_dummy_magic_14_0.err_amp_mir.t5 GNDA.t30 GNDA.t16 sky130_fd_pr__nfet_01v8 ad=0.5 pd=2.9 as=0.5 ps=2.9 w=2.5 l=0.15
X61 two_stage_opamp_dummy_magic_14_0.V_source.t28 two_stage_opamp_dummy_magic_14_0.V_tail_gate.t9 GNDA.t8 GNDA.t7 sky130_fd_pr__nfet_01v8 ad=0.5 pd=2.9 as=0.5 ps=2.9 w=2.5 l=0.15
X62 VDDA.t394 bgr_7_0.1st_Vout_1.t13 bgr_7_0.V_TOP.t13 VDDA.t393 sky130_fd_pr__pfet_01v8 ad=0.2 pd=1.4 as=0.2 ps=1.4 w=1 l=0.2
X63 bgr_7_0.V_TOP.t17 VDDA.t77 sky130_fd_pr__cap_mim_m3_1 l=2 w=2
X64 VOUT-.t26 two_stage_opamp_dummy_magic_14_0.cap_res_X.t130 sky130_fd_pr__cap_mim_m3_1 l=2 w=2
X65 GNDA.t274 GNDA.t272 bgr_7_0.NFET_GATE_10uA.t0 GNDA.t273 sky130_fd_pr__nfet_01v8 ad=0.4 pd=2.8 as=0.2 ps=1.4 w=1 l=0.15
X66 bgr_7_0.START_UP.t5 bgr_7_0.V_TOP.t18 VDDA.t154 VDDA.t153 sky130_fd_pr__pfet_01v8 ad=0.6 pd=3.4 as=0.6 ps=3.4 w=3 l=0.5
X67 VOUT-.t27 two_stage_opamp_dummy_magic_14_0.cap_res_X.t129 sky130_fd_pr__cap_mim_m3_1 l=2 w=2
X68 two_stage_opamp_dummy_magic_14_0.V_err_gate.t4 bgr_7_0.NFET_GATE_10uA.t6 GNDA.t187 GNDA.t186 sky130_fd_pr__nfet_01v8 ad=0.2 pd=1.4 as=0.2 ps=1.4 w=1 l=0.15
X69 VDDA.t355 two_stage_opamp_dummy_magic_14_0.Vb3.t9 two_stage_opamp_dummy_magic_14_0.VD3.t37 VDDA.t354 sky130_fd_pr__pfet_01v8 ad=0.7 pd=3.9 as=0.7 ps=3.9 w=3.5 l=0.2
X70 bgr_7_0.1st_Vout_1.t10 bgr_7_0.Vin+.t7 bgr_7_0.V_p_1.t9 GNDA.t39 sky130_fd_pr__nfet_01v8 ad=0.2 pd=1.8 as=0.1 ps=0.9 w=0.5 l=0.2
X71 VOUT-.t28 two_stage_opamp_dummy_magic_14_0.cap_res_X.t128 sky130_fd_pr__cap_mim_m3_1 l=2 w=2
X72 GNDA.t132 two_stage_opamp_dummy_magic_14_0.V_tail_gate.t10 two_stage_opamp_dummy_magic_14_0.V_source.t27 GNDA.t131 sky130_fd_pr__nfet_01v8 ad=0.5 pd=2.9 as=0.5 ps=2.9 w=2.5 l=0.15
X73 VOUT+.t30 two_stage_opamp_dummy_magic_14_0.cap_res_Y.t127 sky130_fd_pr__cap_mim_m3_1 l=2 w=2
X74 VDDA.t389 two_stage_opamp_dummy_magic_14_0.X.t29 two_stage_opamp_dummy_magic_14_0.V_CMFB_S2.t7 GNDA.t297 sky130_fd_pr__nfet_01v8 ad=0.6 pd=3.4 as=0.6 ps=3.4 w=3 l=0.15
X75 bgr_7_0.1st_Vout_1.t14 bgr_7_0.cap_res1.t18 sky130_fd_pr__cap_mim_m3_1 l=2 w=2
X76 two_stage_opamp_dummy_magic_14_0.V_CMFB_S4.t9 two_stage_opamp_dummy_magic_14_0.Y.t27 VDDA.t94 GNDA.t67 sky130_fd_pr__nfet_01v8 ad=0.6 pd=3.4 as=0.6 ps=3.4 w=3 l=0.15
X77 two_stage_opamp_dummy_magic_14_0.V_err_p.t2 two_stage_opamp_dummy_magic_14_0.V_err_gate.t7 VDDA.t381 VDDA.t380 sky130_fd_pr__pfet_01v8 ad=0.5 pd=2.9 as=0.5 ps=2.9 w=2.5 l=0.15
X78 two_stage_opamp_dummy_magic_14_0.V_tail_gate.t3 VIN-.t1 two_stage_opamp_dummy_magic_14_0.V_p_mir.t0 GNDA.t16 sky130_fd_pr__nfet_01v8 ad=0.3 pd=1.9 as=0.3 ps=1.9 w=1.5 l=0.15
X79 two_stage_opamp_dummy_magic_14_0.V_CMFB_S4.t8 two_stage_opamp_dummy_magic_14_0.Y.t28 VDDA.t84 GNDA.t63 sky130_fd_pr__nfet_01v8 ad=0.6 pd=3.4 as=0.6 ps=3.4 w=3 l=0.15
X80 bgr_7_0.V_TOP.t19 VDDA.t155 sky130_fd_pr__cap_mim_m3_1 l=2 w=2
X81 bgr_7_0.V_mir2.t11 bgr_7_0.V_mir2.t10 VDDA.t311 VDDA.t310 sky130_fd_pr__pfet_01v8 ad=0.2 pd=1.4 as=0.2 ps=1.4 w=1 l=0.2
X82 two_stage_opamp_dummy_magic_14_0.V_CMFB_S3.t14 VDDA.t271 VDDA.t273 VDDA.t272 sky130_fd_pr__pfet_01v8 ad=0.2 pd=1.4 as=0.4 ps=2.8 w=1 l=0.15
X83 VOUT-.t29 two_stage_opamp_dummy_magic_14_0.cap_res_X.t127 sky130_fd_pr__cap_mim_m3_1 l=2 w=2
X84 VOUT+.t10 a_5980_2720.t1 GNDA.t123 sky130_fd_pr__res_xhigh_po_0p35 l=2.63
X85 two_stage_opamp_dummy_magic_14_0.V_CMFB_S3.t11 bgr_7_0.PFET_GATE_10uA.t11 VDDA.t86 VDDA.t85 sky130_fd_pr__pfet_01v8 ad=0.2 pd=1.4 as=0.2 ps=1.4 w=1 l=0.15
X86 two_stage_opamp_dummy_magic_14_0.Vb2_Vb3.t9 VDDA.t280 VDDA.t282 VDDA.t281 sky130_fd_pr__pfet_01v8 ad=0.7 pd=3.9 as=1.4 ps=7.8 w=3.5 l=0.2
X87 VDDA.t365 bgr_7_0.PFET_GATE_10uA.t12 two_stage_opamp_dummy_magic_14_0.V_CMFB_S3.t16 VDDA.t364 sky130_fd_pr__pfet_01v8 ad=0.2 pd=1.4 as=0.2 ps=1.4 w=1 l=0.15
X88 GNDA.t62 two_stage_opamp_dummy_magic_14_0.Y.t29 two_stage_opamp_dummy_magic_14_0.V_CMFB_S3.t8 VDDA.t79 sky130_fd_pr__pfet_01v8 ad=0.4 pd=2.4 as=0.4 ps=2.4 w=2 l=0.15
X89 VOUT+.t31 two_stage_opamp_dummy_magic_14_0.cap_res_Y.t126 sky130_fd_pr__cap_mim_m3_1 l=2 w=2
X90 bgr_7_0.V_TOP.t20 VDDA.t156 sky130_fd_pr__cap_mim_m3_1 l=2 w=2
X91 GNDA.t134 two_stage_opamp_dummy_magic_14_0.V_tail_gate.t11 two_stage_opamp_dummy_magic_14_0.V_source.t26 GNDA.t133 sky130_fd_pr__nfet_01v8 ad=0.5 pd=2.9 as=0.5 ps=2.9 w=2.5 l=0.15
X92 bgr_7_0.1st_Vout_2.t1 bgr_7_0.V_CUR_REF_REG.t4 bgr_7_0.V_p_2.t3 GNDA.t35 sky130_fd_pr__nfet_01v8 ad=0.1 pd=0.9 as=0.1 ps=0.9 w=0.5 l=0.2
X93 two_stage_opamp_dummy_magic_14_0.VD4.t19 two_stage_opamp_dummy_magic_14_0.Vb2.t12 two_stage_opamp_dummy_magic_14_0.Y.t2 two_stage_opamp_dummy_magic_14_0.VD4.t18 sky130_fd_pr__pfet_01v8 ad=0.7 pd=3.9 as=0.7 ps=3.9 w=3.5 l=0.2
X94 VOUT+.t2 two_stage_opamp_dummy_magic_14_0.V_b_2nd_stage.t3 GNDA.t37 GNDA.t36 sky130_fd_pr__nfet_01v8 ad=1.4 pd=7.4 as=1.4 ps=7.4 w=7 l=0.6
X95 VOUT-.t30 two_stage_opamp_dummy_magic_14_0.cap_res_X.t126 sky130_fd_pr__cap_mim_m3_1 l=2 w=2
X96 VOUT-.t31 two_stage_opamp_dummy_magic_14_0.cap_res_X.t125 sky130_fd_pr__cap_mim_m3_1 l=2 w=2
X97 VOUT-.t32 two_stage_opamp_dummy_magic_14_0.cap_res_X.t124 sky130_fd_pr__cap_mim_m3_1 l=2 w=2
X98 two_stage_opamp_dummy_magic_14_0.VD2.t8 two_stage_opamp_dummy_magic_14_0.Vb1.t16 two_stage_opamp_dummy_magic_14_0.Y.t14 GNDA.t93 sky130_fd_pr__nfet_01v8 ad=0.3 pd=1.9 as=0.3 ps=1.9 w=1.5 l=0.15
X99 two_stage_opamp_dummy_magic_14_0.V_source.t25 two_stage_opamp_dummy_magic_14_0.V_tail_gate.t12 GNDA.t70 GNDA.t69 sky130_fd_pr__nfet_01v8 ad=0.5 pd=2.9 as=0.5 ps=2.9 w=2.5 l=0.15
X100 VOUT-.t18 a_14010_2720.t1 GNDA.t307 sky130_fd_pr__res_xhigh_po_0p35 l=2.63
X101 bgr_7_0.PFET_GATE_10uA.t5 bgr_7_0.1st_Vout_2.t13 VDDA.t293 VDDA.t292 sky130_fd_pr__pfet_01v8 ad=0.2 pd=1.4 as=0.2 ps=1.4 w=1 l=0.2
X102 VOUT-.t33 two_stage_opamp_dummy_magic_14_0.cap_res_X.t123 sky130_fd_pr__cap_mim_m3_1 l=2 w=2
X103 bgr_7_0.V_TOP.t21 VDDA.t150 sky130_fd_pr__cap_mim_m3_1 l=2 w=2
X104 bgr_7_0.START_UP_NFET1.t0 bgr_7_0.START_UP_NFET1 GNDA.t295 GNDA.t294 sky130_fd_pr__nfet_01v8 ad=0.2 pd=1.4 as=0.4 ps=2.8 w=1 l=10
X105 two_stage_opamp_dummy_magic_14_0.Vb2_Vb3.t8 two_stage_opamp_dummy_magic_14_0.Vb2_Vb3.t6 two_stage_opamp_dummy_magic_14_0.Vb3.t6 two_stage_opamp_dummy_magic_14_0.Vb2_Vb3.t7 sky130_fd_pr__pfet_01v8 ad=1.4 pd=7.8 as=0.7 ps=3.9 w=3.5 l=0.2
X106 two_stage_opamp_dummy_magic_14_0.VD3.t17 two_stage_opamp_dummy_magic_14_0.Vb2.t13 two_stage_opamp_dummy_magic_14_0.X.t5 two_stage_opamp_dummy_magic_14_0.VD3.t16 sky130_fd_pr__pfet_01v8 ad=0.7 pd=3.9 as=0.7 ps=3.9 w=3.5 l=0.2
X107 VOUT+.t32 two_stage_opamp_dummy_magic_14_0.cap_res_Y.t125 sky130_fd_pr__cap_mim_m3_1 l=2 w=2
X108 two_stage_opamp_dummy_magic_14_0.V_source.t6 VIN-.t2 two_stage_opamp_dummy_magic_14_0.VD1.t3 GNDA.t10 sky130_fd_pr__nfet_01v8 ad=0.3 pd=1.9 as=0.3 ps=1.9 w=1.5 l=0.15
X109 bgr_7_0.V_CUR_REF_REG.t1 VDDA.t277 VDDA.t279 VDDA.t278 sky130_fd_pr__pfet_01v8 ad=0.2 pd=1.4 as=0.4 ps=2.8 w=1 l=0.15
X110 VOUT-.t9 VDDA.t274 VDDA.t276 VDDA.t275 sky130_fd_pr__pfet_01v8 ad=1.2 pd=6.4 as=2.4 ps=12.8 w=6 l=0.15
X111 two_stage_opamp_dummy_magic_14_0.V_source.t8 VIN-.t3 two_stage_opamp_dummy_magic_14_0.VD1.t14 GNDA.t73 sky130_fd_pr__nfet_01v8 ad=0.3 pd=1.9 as=0.3 ps=1.9 w=1.5 l=0.15
X112 VOUT+.t33 two_stage_opamp_dummy_magic_14_0.cap_res_Y.t124 sky130_fd_pr__cap_mim_m3_1 l=2 w=2
X113 bgr_7_0.V_TOP.t22 VDDA.t151 sky130_fd_pr__cap_mim_m3_1 l=2 w=2
X114 GNDA.t185 bgr_7_0.NFET_GATE_10uA.t7 two_stage_opamp_dummy_magic_14_0.V_CMFB_S2.t12 GNDA.t184 sky130_fd_pr__nfet_01v8 ad=0.2 pd=1.4 as=0.2 ps=1.4 w=1 l=0.15
X115 two_stage_opamp_dummy_magic_14_0.V_CMFB_S2.t11 bgr_7_0.NFET_GATE_10uA.t8 GNDA.t183 GNDA.t182 sky130_fd_pr__nfet_01v8 ad=0.2 pd=1.4 as=0.2 ps=1.4 w=1 l=0.15
X116 two_stage_opamp_dummy_magic_14_0.VD4.t17 two_stage_opamp_dummy_magic_14_0.Vb2.t14 two_stage_opamp_dummy_magic_14_0.Y.t1 two_stage_opamp_dummy_magic_14_0.VD4.t16 sky130_fd_pr__pfet_01v8 ad=0.7 pd=3.9 as=0.7 ps=3.9 w=3.5 l=0.2
X117 two_stage_opamp_dummy_magic_14_0.V_source.t3 VIN+.t1 two_stage_opamp_dummy_magic_14_0.VD2.t0 GNDA.t23 sky130_fd_pr__nfet_01v8 ad=0.3 pd=1.9 as=0.3 ps=1.9 w=1.5 l=0.15
X118 VDDA.t123 two_stage_opamp_dummy_magic_14_0.Y.t30 VOUT+.t6 VDDA.t122 sky130_fd_pr__pfet_01v8 ad=1.2 pd=6.4 as=1.2 ps=6.4 w=6 l=0.15
X119 GNDA.t271 GNDA.t269 two_stage_opamp_dummy_magic_14_0.VD2.t15 GNDA.t270 sky130_fd_pr__nfet_01v8 ad=0.6 pd=3.8 as=0.3 ps=1.9 w=1.5 l=0.15
X120 VOUT-.t34 two_stage_opamp_dummy_magic_14_0.cap_res_X.t122 sky130_fd_pr__cap_mim_m3_1 l=2 w=2
X121 two_stage_opamp_dummy_magic_14_0.V_source.t24 two_stage_opamp_dummy_magic_14_0.V_tail_gate.t13 GNDA.t72 GNDA.t71 sky130_fd_pr__nfet_01v8 ad=0.5 pd=2.9 as=0.5 ps=2.9 w=2.5 l=0.15
X122 VOUT-.t35 two_stage_opamp_dummy_magic_14_0.cap_res_X.t121 sky130_fd_pr__cap_mim_m3_1 l=2 w=2
X123 VOUT-.t36 two_stage_opamp_dummy_magic_14_0.cap_res_X.t120 sky130_fd_pr__cap_mim_m3_1 l=2 w=2
X124 VOUT-.t37 two_stage_opamp_dummy_magic_14_0.cap_res_X.t119 sky130_fd_pr__cap_mim_m3_1 l=2 w=2
X125 bgr_7_0.1st_Vout_2.t14 bgr_7_0.cap_res2.t17 sky130_fd_pr__cap_mim_m3_1 l=2 w=2
X126 VOUT+.t34 two_stage_opamp_dummy_magic_14_0.cap_res_Y.t123 sky130_fd_pr__cap_mim_m3_1 l=2 w=2
X127 VOUT+.t35 two_stage_opamp_dummy_magic_14_0.cap_res_Y.t122 sky130_fd_pr__cap_mim_m3_1 l=2 w=2
X128 two_stage_opamp_dummy_magic_14_0.Vb1.t4 two_stage_opamp_dummy_magic_14_0.Vb1.t3 two_stage_opamp_dummy_magic_14_0.Vb1_2.t3 GNDA.t22 sky130_fd_pr__nfet_01v8 ad=0.3 pd=1.9 as=0.3 ps=1.9 w=1.5 l=0.15
X129 VOUT+.t36 two_stage_opamp_dummy_magic_14_0.cap_res_Y.t121 sky130_fd_pr__cap_mim_m3_1 l=2 w=2
X130 VOUT+.t37 two_stage_opamp_dummy_magic_14_0.cap_res_Y.t120 sky130_fd_pr__cap_mim_m3_1 l=2 w=2
X131 VOUT+.t38 two_stage_opamp_dummy_magic_14_0.cap_res_Y.t119 sky130_fd_pr__cap_mim_m3_1 l=2 w=2
X132 GNDA.t129 two_stage_opamp_dummy_magic_14_0.V_tail_gate.t14 two_stage_opamp_dummy_magic_14_0.V_source.t23 GNDA.t16 sky130_fd_pr__nfet_01v8 ad=0.5 pd=2.9 as=0.5 ps=2.9 w=2.5 l=0.15
X133 a_12530_23988.t1 bgr_7_0.Vin-.t7 GNDA.t312 sky130_fd_pr__res_xhigh_po_0p35 l=6
X134 two_stage_opamp_dummy_magic_14_0.VD3.t15 two_stage_opamp_dummy_magic_14_0.Vb2.t15 two_stage_opamp_dummy_magic_14_0.X.t0 two_stage_opamp_dummy_magic_14_0.VD3.t14 sky130_fd_pr__pfet_01v8 ad=0.7 pd=3.9 as=0.7 ps=3.9 w=3.5 l=0.2
X135 two_stage_opamp_dummy_magic_14_0.V_CMFB_S4.t7 two_stage_opamp_dummy_magic_14_0.Y.t31 VDDA.t106 GNDA.t68 sky130_fd_pr__nfet_01v8 ad=0.6 pd=3.4 as=0.6 ps=3.4 w=3 l=0.15
X136 VOUT-.t38 two_stage_opamp_dummy_magic_14_0.cap_res_X.t118 sky130_fd_pr__cap_mim_m3_1 l=2 w=2
X137 VOUT-.t39 two_stage_opamp_dummy_magic_14_0.cap_res_X.t117 sky130_fd_pr__cap_mim_m3_1 l=2 w=2
X138 bgr_7_0.1st_Vout_2.t0 bgr_7_0.V_mir2.t18 VDDA.t29 VDDA.t28 sky130_fd_pr__pfet_01v8 ad=0.2 pd=1.4 as=0.2 ps=1.4 w=1 l=0.2
X139 two_stage_opamp_dummy_magic_14_0.V_err_p.t0 two_stage_opamp_dummy_magic_14_0.V_tot.t4 two_stage_opamp_dummy_magic_14_0.err_amp_mir.t0 VDDA.t3 sky130_fd_pr__pfet_01v8 ad=0.5 pd=2.9 as=0.5 ps=2.9 w=2.5 l=0.15
X140 two_stage_opamp_dummy_magic_14_0.V_CMFB_S1.t15 two_stage_opamp_dummy_magic_14_0.X.t30 GNDA.t141 VDDA.t295 sky130_fd_pr__pfet_01v8 ad=0.4 pd=2.4 as=0.4 ps=2.4 w=2 l=0.15
X141 VOUT-.t40 two_stage_opamp_dummy_magic_14_0.cap_res_X.t116 sky130_fd_pr__cap_mim_m3_1 l=2 w=2
X142 GNDA.t303 two_stage_opamp_dummy_magic_14_0.Y.t32 two_stage_opamp_dummy_magic_14_0.V_CMFB_S3.t7 VDDA.t392 sky130_fd_pr__pfet_01v8 ad=0.4 pd=2.4 as=0.4 ps=2.4 w=2 l=0.15
X143 VOUT-.t41 two_stage_opamp_dummy_magic_14_0.cap_res_X.t115 sky130_fd_pr__cap_mim_m3_1 l=2 w=2
X144 bgr_7_0.1st_Vout_2.t15 bgr_7_0.cap_res2.t16 sky130_fd_pr__cap_mim_m3_1 l=2 w=2
X145 VDDA.t270 VDDA.t268 VDDA.t270 VDDA.t269 sky130_fd_pr__pfet_01v8 ad=0.4 pd=2.4 as=0 ps=0 w=2 l=0.15
X146 VOUT-.t42 two_stage_opamp_dummy_magic_14_0.cap_res_X.t114 sky130_fd_pr__cap_mim_m3_1 l=2 w=2
X147 VOUT+.t39 two_stage_opamp_dummy_magic_14_0.cap_res_Y.t118 sky130_fd_pr__cap_mim_m3_1 l=2 w=2
X148 VOUT-.t43 two_stage_opamp_dummy_magic_14_0.cap_res_X.t113 sky130_fd_pr__cap_mim_m3_1 l=2 w=2
X149 VOUT+.t40 two_stage_opamp_dummy_magic_14_0.cap_res_Y.t117 sky130_fd_pr__cap_mim_m3_1 l=2 w=2
X150 VOUT+.t41 two_stage_opamp_dummy_magic_14_0.cap_res_Y.t116 sky130_fd_pr__cap_mim_m3_1 l=2 w=2
X151 bgr_7_0.1st_Vout_1.t15 bgr_7_0.cap_res1.t17 sky130_fd_pr__cap_mim_m3_1 l=2 w=2
X152 VOUT+.t42 two_stage_opamp_dummy_magic_14_0.cap_res_Y.t115 sky130_fd_pr__cap_mim_m3_1 l=2 w=2
X153 bgr_7_0.V_mir1.t3 bgr_7_0.Vin-.t8 bgr_7_0.V_p_1.t4 GNDA.t125 sky130_fd_pr__nfet_01v8 ad=0.1 pd=0.9 as=0.1 ps=0.9 w=0.5 l=0.2
X154 bgr_7_0.V_mir1.t16 bgr_7_0.V_mir1.t15 VDDA.t60 VDDA.t59 sky130_fd_pr__pfet_01v8 ad=0.2 pd=1.4 as=0.2 ps=1.4 w=1 l=0.2
X155 two_stage_opamp_dummy_magic_14_0.VD2.t4 two_stage_opamp_dummy_magic_14_0.Vb1.t17 two_stage_opamp_dummy_magic_14_0.Y.t12 GNDA.t48 sky130_fd_pr__nfet_01v8 ad=0.3 pd=1.9 as=0.3 ps=1.9 w=1.5 l=0.15
X156 GNDA.t1 a_7580_22380.t0 GNDA.t0 sky130_fd_pr__res_xhigh_po_0p35 l=6
X157 VOUT-.t44 two_stage_opamp_dummy_magic_14_0.cap_res_X.t112 sky130_fd_pr__cap_mim_m3_1 l=2 w=2
X158 VOUT-.t45 two_stage_opamp_dummy_magic_14_0.cap_res_X.t111 sky130_fd_pr__cap_mim_m3_1 l=2 w=2
X159 VOUT+.t43 two_stage_opamp_dummy_magic_14_0.cap_res_Y.t114 sky130_fd_pr__cap_mim_m3_1 l=2 w=2
X160 VOUT-.t46 two_stage_opamp_dummy_magic_14_0.cap_res_X.t110 sky130_fd_pr__cap_mim_m3_1 l=2 w=2
X161 VOUT-.t47 two_stage_opamp_dummy_magic_14_0.cap_res_X.t109 sky130_fd_pr__cap_mim_m3_1 l=2 w=2
X162 VOUT-.t48 two_stage_opamp_dummy_magic_14_0.cap_res_X.t108 sky130_fd_pr__cap_mim_m3_1 l=2 w=2
X163 VDDA.t353 two_stage_opamp_dummy_magic_14_0.Vb3.t10 two_stage_opamp_dummy_magic_14_0.VD4.t36 VDDA.t352 sky130_fd_pr__pfet_01v8 ad=0.7 pd=3.9 as=0.7 ps=3.9 w=3.5 l=0.2
X164 bgr_7_0.V_TOP.t23 VDDA.t152 sky130_fd_pr__cap_mim_m3_1 l=2 w=2
X165 VDDA.t267 VDDA.t265 two_stage_opamp_dummy_magic_14_0.V_CMFB_S1.t6 VDDA.t266 sky130_fd_pr__pfet_01v8 ad=0.4 pd=2.8 as=0.2 ps=1.4 w=1 l=0.15
X166 VOUT-.t49 two_stage_opamp_dummy_magic_14_0.cap_res_X.t107 sky130_fd_pr__cap_mim_m3_1 l=2 w=2
X167 VOUT-.t50 two_stage_opamp_dummy_magic_14_0.cap_res_X.t106 sky130_fd_pr__cap_mim_m3_1 l=2 w=2
X168 GNDA.t103 two_stage_opamp_dummy_magic_14_0.V_b_2nd_stage.t4 VOUT+.t8 GNDA.t102 sky130_fd_pr__nfet_01v8 ad=1.4 pd=7.4 as=1.4 ps=7.4 w=7 l=0.6
X169 two_stage_opamp_dummy_magic_14_0.V_CMFB_S1.t3 bgr_7_0.PFET_GATE_10uA.t13 VDDA.t58 VDDA.t57 sky130_fd_pr__pfet_01v8 ad=0.2 pd=1.4 as=0.2 ps=1.4 w=1 l=0.15
X170 VOUT-.t5 two_stage_opamp_dummy_magic_14_0.X.t31 VDDA.t133 VDDA.t132 sky130_fd_pr__pfet_01v8 ad=1.2 pd=6.4 as=1.2 ps=6.4 w=6 l=0.15
X171 VOUT+.t44 two_stage_opamp_dummy_magic_14_0.cap_res_Y.t113 sky130_fd_pr__cap_mim_m3_1 l=2 w=2
X172 VOUT+.t45 two_stage_opamp_dummy_magic_14_0.cap_res_Y.t112 sky130_fd_pr__cap_mim_m3_1 l=2 w=2
X173 two_stage_opamp_dummy_magic_14_0.V_source.t40 VIN+.t2 two_stage_opamp_dummy_magic_14_0.VD2.t21 GNDA.t93 sky130_fd_pr__nfet_01v8 ad=0.3 pd=1.9 as=0.3 ps=1.9 w=1.5 l=0.15
X174 bgr_7_0.V_mir1.t1 bgr_7_0.Vin-.t9 bgr_7_0.V_p_1.t3 GNDA.t4 sky130_fd_pr__nfet_01v8 ad=0.1 pd=0.9 as=0.1 ps=0.9 w=0.5 l=0.2
X175 two_stage_opamp_dummy_magic_14_0.X.t24 two_stage_opamp_dummy_magic_14_0.Vb1.t18 two_stage_opamp_dummy_magic_14_0.VD1.t11 GNDA.t288 sky130_fd_pr__nfet_01v8 ad=0.3 pd=1.9 as=0.3 ps=1.9 w=1.5 l=0.15
X176 VOUT+.t46 two_stage_opamp_dummy_magic_14_0.cap_res_Y.t111 sky130_fd_pr__cap_mim_m3_1 l=2 w=2
X177 two_stage_opamp_dummy_magic_14_0.VD3.t36 two_stage_opamp_dummy_magic_14_0.Vb3.t11 VDDA.t351 VDDA.t350 sky130_fd_pr__pfet_01v8 ad=0.7 pd=3.9 as=0.7 ps=3.9 w=3.5 l=0.2
X178 VOUT+.t47 two_stage_opamp_dummy_magic_14_0.cap_res_Y.t110 sky130_fd_pr__cap_mim_m3_1 l=2 w=2
X179 two_stage_opamp_dummy_magic_14_0.VD3.t13 two_stage_opamp_dummy_magic_14_0.Vb2.t16 two_stage_opamp_dummy_magic_14_0.X.t21 two_stage_opamp_dummy_magic_14_0.VD3.t12 sky130_fd_pr__pfet_01v8 ad=0.7 pd=3.9 as=0.7 ps=3.9 w=3.5 l=0.2
X180 two_stage_opamp_dummy_magic_14_0.Vb1.t11 GNDA.t267 GNDA.t268 GNDA.t52 sky130_fd_pr__nfet_01v8 ad=0.3 pd=1.9 as=0.6 ps=3.8 w=1.5 l=0.15
X181 bgr_7_0.START_UP.t4 bgr_7_0.V_TOP.t24 VDDA.t69 VDDA.t68 sky130_fd_pr__pfet_01v8 ad=0.6 pd=3.4 as=0.6 ps=3.4 w=3 l=0.5
X182 VOUT-.t51 two_stage_opamp_dummy_magic_14_0.cap_res_X.t105 sky130_fd_pr__cap_mim_m3_1 l=2 w=2
X183 bgr_7_0.PFET_GATE_10uA.t4 bgr_7_0.1st_Vout_2.t16 VDDA.t403 VDDA.t402 sky130_fd_pr__pfet_01v8 ad=0.2 pd=1.4 as=0.2 ps=1.4 w=1 l=0.2
X184 VDDA.t38 bgr_7_0.V_mir1.t18 bgr_7_0.1st_Vout_1.t4 VDDA.t37 sky130_fd_pr__pfet_01v8 ad=0.2 pd=1.4 as=0.2 ps=1.4 w=1 l=0.2
X185 VOUT+.t48 two_stage_opamp_dummy_magic_14_0.cap_res_Y.t109 sky130_fd_pr__cap_mim_m3_1 l=2 w=2
X186 VOUT+.t49 two_stage_opamp_dummy_magic_14_0.cap_res_Y.t108 sky130_fd_pr__cap_mim_m3_1 l=2 w=2
X187 VOUT-.t52 two_stage_opamp_dummy_magic_14_0.cap_res_X.t104 sky130_fd_pr__cap_mim_m3_1 l=2 w=2
X188 VDDA.t63 two_stage_opamp_dummy_magic_14_0.X.t32 two_stage_opamp_dummy_magic_14_0.V_CMFB_S2.t6 GNDA.t49 sky130_fd_pr__nfet_01v8 ad=0.6 pd=3.4 as=0.6 ps=3.4 w=3 l=0.15
X189 VOUT-.t53 two_stage_opamp_dummy_magic_14_0.cap_res_X.t103 sky130_fd_pr__cap_mim_m3_1 l=2 w=2
X190 two_stage_opamp_dummy_magic_14_0.Vb2.t7 bgr_7_0.NFET_GATE_10uA.t9 GNDA.t181 GNDA.t180 sky130_fd_pr__nfet_01v8 ad=0.2 pd=1.4 as=0.2 ps=1.4 w=1 l=0.15
X191 VDDA.t349 two_stage_opamp_dummy_magic_14_0.Vb3.t12 two_stage_opamp_dummy_magic_14_0.Vb2_Vb3.t10 VDDA.t348 sky130_fd_pr__pfet_01v8 ad=0.7 pd=3.9 as=0.7 ps=3.9 w=3.5 l=0.2
X192 GNDA.t179 bgr_7_0.NFET_GATE_10uA.t10 two_stage_opamp_dummy_magic_14_0.Vb2.t6 GNDA.t178 sky130_fd_pr__nfet_01v8 ad=0.2 pd=1.4 as=0.2 ps=1.4 w=1 l=0.15
X193 two_stage_opamp_dummy_magic_14_0.V_CMFB_S4.t6 two_stage_opamp_dummy_magic_14_0.Y.t33 VDDA.t401 GNDA.t306 sky130_fd_pr__nfet_01v8 ad=0.6 pd=3.4 as=0.6 ps=3.4 w=3 l=0.15
X194 VOUT+.t50 two_stage_opamp_dummy_magic_14_0.cap_res_Y.t107 sky130_fd_pr__cap_mim_m3_1 l=2 w=2
X195 bgr_7_0.V_TOP.t25 VDDA.t70 sky130_fd_pr__cap_mim_m3_1 l=2 w=2
X196 GNDA.t177 bgr_7_0.NFET_GATE_10uA.t11 two_stage_opamp_dummy_magic_14_0.Vb2.t5 GNDA.t176 sky130_fd_pr__nfet_01v8 ad=0.2 pd=1.4 as=0.2 ps=1.4 w=1 l=0.15
X197 two_stage_opamp_dummy_magic_14_0.Y.t5 two_stage_opamp_dummy_magic_14_0.Vb2.t17 two_stage_opamp_dummy_magic_14_0.VD4.t15 two_stage_opamp_dummy_magic_14_0.VD4.t14 sky130_fd_pr__pfet_01v8 ad=0.7 pd=3.9 as=0.7 ps=3.9 w=3.5 l=0.2
X198 VDDA.t264 VDDA.t262 VOUT-.t8 VDDA.t263 sky130_fd_pr__pfet_01v8 ad=2.4 pd=12.8 as=1.2 ps=6.4 w=6 l=0.15
X199 VOUT+.t51 two_stage_opamp_dummy_magic_14_0.cap_res_Y.t106 sky130_fd_pr__cap_mim_m3_1 l=2 w=2
X200 VOUT-.t54 two_stage_opamp_dummy_magic_14_0.cap_res_X.t102 sky130_fd_pr__cap_mim_m3_1 l=2 w=2
X201 GNDA.t137 VDDA.t259 VDDA.t261 VDDA.t260 sky130_fd_pr__pfet_01v8 ad=0.4 pd=2.4 as=0.8 ps=4.8 w=2 l=0.15
X202 GNDA.t86 two_stage_opamp_dummy_magic_14_0.Y.t34 two_stage_opamp_dummy_magic_14_0.V_CMFB_S3.t6 VDDA.t120 sky130_fd_pr__pfet_01v8 ad=0.4 pd=2.4 as=0.4 ps=2.4 w=2 l=0.15
X203 VOUT+.t52 two_stage_opamp_dummy_magic_14_0.cap_res_Y.t105 sky130_fd_pr__cap_mim_m3_1 l=2 w=2
X204 VOUT+.t53 two_stage_opamp_dummy_magic_14_0.cap_res_Y.t104 sky130_fd_pr__cap_mim_m3_1 l=2 w=2
X205 VOUT+.t54 two_stage_opamp_dummy_magic_14_0.cap_res_Y.t103 sky130_fd_pr__cap_mim_m3_1 l=2 w=2
X206 VOUT+.t55 two_stage_opamp_dummy_magic_14_0.cap_res_Y.t102 sky130_fd_pr__cap_mim_m3_1 l=2 w=2
X207 VDDA.t72 bgr_7_0.V_TOP.t26 bgr_7_0.Vin+.t4 VDDA.t71 sky130_fd_pr__pfet_01v8 ad=0.6 pd=3.4 as=0.6 ps=3.4 w=3 l=0.5
X208 bgr_7_0.1st_Vout_2.t5 bgr_7_0.V_mir2.t19 VDDA.t110 VDDA.t109 sky130_fd_pr__pfet_01v8 ad=0.2 pd=1.4 as=0.2 ps=1.4 w=1 l=0.2
X209 VOUT-.t55 two_stage_opamp_dummy_magic_14_0.cap_res_X.t101 sky130_fd_pr__cap_mim_m3_1 l=2 w=2
X210 two_stage_opamp_dummy_magic_14_0.V_b_2nd_stage.t0 a_14010_2720.t0 GNDA.t66 sky130_fd_pr__res_xhigh_po_0p35 l=2.63
X211 bgr_7_0.V_TOP.t12 bgr_7_0.1st_Vout_1.t16 VDDA.t373 VDDA.t372 sky130_fd_pr__pfet_01v8 ad=0.2 pd=1.4 as=0.2 ps=1.4 w=1 l=0.2
X212 VOUT-.t56 two_stage_opamp_dummy_magic_14_0.cap_res_X.t100 sky130_fd_pr__cap_mim_m3_1 l=2 w=2
X213 VOUT-.t57 two_stage_opamp_dummy_magic_14_0.cap_res_X.t99 sky130_fd_pr__cap_mim_m3_1 l=2 w=2
X214 VOUT-.t58 two_stage_opamp_dummy_magic_14_0.cap_res_X.t98 sky130_fd_pr__cap_mim_m3_1 l=2 w=2
X215 VOUT+.t56 two_stage_opamp_dummy_magic_14_0.cap_res_Y.t101 sky130_fd_pr__cap_mim_m3_1 l=2 w=2
X216 two_stage_opamp_dummy_magic_14_0.V_tail_gate.t1 bgr_7_0.PFET_GATE_10uA.t14 VDDA.t31 VDDA.t30 sky130_fd_pr__pfet_01v8 ad=0.4 pd=2.4 as=0.4 ps=2.4 w=2 l=0.15
X217 VOUT-.t59 two_stage_opamp_dummy_magic_14_0.cap_res_X.t97 sky130_fd_pr__cap_mim_m3_1 l=2 w=2
X218 two_stage_opamp_dummy_magic_14_0.X.t7 two_stage_opamp_dummy_magic_14_0.Vb2.t18 two_stage_opamp_dummy_magic_14_0.VD3.t11 two_stage_opamp_dummy_magic_14_0.VD3.t10 sky130_fd_pr__pfet_01v8 ad=0.7 pd=3.9 as=0.7 ps=3.9 w=3.5 l=0.2
X219 a_14330_5524.t1 two_stage_opamp_dummy_magic_14_0.V_CMFB_S2.t14 GNDA.t300 sky130_fd_pr__res_xhigh_po_0p35 l=1.75
X220 VOUT+.t57 two_stage_opamp_dummy_magic_14_0.cap_res_Y.t100 sky130_fd_pr__cap_mim_m3_1 l=2 w=2
X221 VOUT+.t58 two_stage_opamp_dummy_magic_14_0.cap_res_Y.t99 sky130_fd_pr__cap_mim_m3_1 l=2 w=2
X222 bgr_7_0.1st_Vout_2.t17 bgr_7_0.cap_res2.t15 sky130_fd_pr__cap_mim_m3_1 l=2 w=2
X223 a_6810_23838.t0 two_stage_opamp_dummy_magic_14_0.V_err_amp_ref.t0 GNDA.t12 sky130_fd_pr__res_xhigh_po_0p35 l=4.33
X224 two_stage_opamp_dummy_magic_14_0.Y.t6 two_stage_opamp_dummy_magic_14_0.Vb2.t19 two_stage_opamp_dummy_magic_14_0.VD4.t13 two_stage_opamp_dummy_magic_14_0.VD4.t12 sky130_fd_pr__pfet_01v8 ad=0.7 pd=3.9 as=0.7 ps=3.9 w=3.5 l=0.2
X225 bgr_7_0.Vin+.t1 bgr_7_0.sky130_fd_pr__rf_pnp_05v5_W3p40L3p40_25.Emitter.t0 GNDA.t100 sky130_fd_pr__res_xhigh_po_0p35 l=2.3
X226 VOUT+.t59 two_stage_opamp_dummy_magic_14_0.cap_res_Y.t98 sky130_fd_pr__cap_mim_m3_1 l=2 w=2
X227 VOUT+.t60 two_stage_opamp_dummy_magic_14_0.cap_res_Y.t97 sky130_fd_pr__cap_mim_m3_1 l=2 w=2
X228 VOUT-.t60 two_stage_opamp_dummy_magic_14_0.cap_res_X.t96 sky130_fd_pr__cap_mim_m3_1 l=2 w=2
X229 VOUT-.t61 two_stage_opamp_dummy_magic_14_0.cap_res_X.t95 sky130_fd_pr__cap_mim_m3_1 l=2 w=2
X230 bgr_7_0.1st_Vout_2.t18 bgr_7_0.cap_res2.t14 sky130_fd_pr__cap_mim_m3_1 l=2 w=2
X231 bgr_7_0.Vin+.t3 bgr_7_0.V_TOP.t27 VDDA.t49 VDDA.t48 sky130_fd_pr__pfet_01v8 ad=0.6 pd=3.4 as=0.6 ps=3.4 w=3 l=0.5