* PEX produced on Fri Aug  1 04:21:51 AM CEST 2025 using /foss/tools/osic-multitool/iic-pex.sh with m=3 and s=1
* NGSPICE file created from bgr_opamp_dummy_magic_17.ext - technology: sky130A

.subckt bgr_opamp_dummy_magic_17 VDDA GNDA VOUT+ VOUT- VIN+ VIN-
X0 VDDA.t421 GNDA.t727 sky130_fd_pr__cap_mim_m3_1 l=2 w=2
X1 GNDA.t883 two_stage_opamp_dummy_magic_24_0.Vb1.t217 sky130_fd_pr__cap_mim_m3_1 l=2 w=2
X2 VDDA.t422 GNDA.t726 sky130_fd_pr__cap_mim_m3_1 l=2 w=2
X3 GNDA.t884 two_stage_opamp_dummy_magic_24_0.Vb1.t216 sky130_fd_pr__cap_mim_m3_1 l=2 w=2
X4 VDDA.t133 two_stage_opamp_dummy_magic_24_0.Vb3.t8 two_stage_opamp_dummy_magic_24_0.VD4.t31 VDDA.t132 sky130_fd_pr__pfet_01v8 ad=0.7 pd=3.9 as=0.7 ps=3.9 w=3.5 l=0.2
X5 VDDA.t423 GNDA.t725 sky130_fd_pr__cap_mim_m3_1 l=2 w=2
X6 VOUT+.t19 two_stage_opamp_dummy_magic_24_0.cap_res_Y.t138 sky130_fd_pr__cap_mim_m3_1 l=2 w=2
X7 two_stage_opamp_dummy_magic_24_0.Vb2.t10 bgr_11_0.NFET_GATE_10uA.t5 GNDA.t146 GNDA.t145 sky130_fd_pr__nfet_01v8 ad=0.2 pd=1.4 as=0.2 ps=1.4 w=1 l=0.15
X8 two_stage_opamp_dummy_magic_24_0.Y.t9 two_stage_opamp_dummy_magic_24_0.Vb2.t11 two_stage_opamp_dummy_magic_24_0.VD4.t3 two_stage_opamp_dummy_magic_24_0.VD4.t2 sky130_fd_pr__pfet_01v8 ad=0.7 pd=3.9 as=0.7 ps=3.9 w=3.5 l=0.2
X9 two_stage_opamp_dummy_magic_24_0.VD2.t20 two_stage_opamp_dummy_magic_24_0.Vb1.t228 two_stage_opamp_dummy_magic_24_0.Y.t13 GNDA.t42 sky130_fd_pr__nfet_01v8 ad=0.3 pd=1.9 as=0.3 ps=1.9 w=1.5 l=0.15
X10 GNDA.t885 two_stage_opamp_dummy_magic_24_0.Vb1.t215 sky130_fd_pr__cap_mim_m3_1 l=2 w=2
X11 GNDA.t886 two_stage_opamp_dummy_magic_24_0.Vb1.t214 sky130_fd_pr__cap_mim_m3_1 l=2 w=2
X12 VDDA.t424 GNDA.t724 sky130_fd_pr__cap_mim_m3_1 l=2 w=2
X13 VDDA.t425 GNDA.t723 sky130_fd_pr__cap_mim_m3_1 l=2 w=2
X14 VDDA.t365 VDDA.t362 VDDA.t364 VDDA.t363 sky130_fd_pr__pfet_01v8 ad=0.4 pd=2.8 as=0 ps=0 w=1 l=0.15
X15 VDDA.t426 GNDA.t722 sky130_fd_pr__cap_mim_m3_1 l=2 w=2
X16 VDDA.t420 bgr_11_0.1st_Vout_1.t7 bgr_11_0.V_TOP.t5 VDDA.t419 sky130_fd_pr__pfet_01v8 ad=0.2 pd=1.4 as=0.2 ps=1.4 w=1 l=0.2
X17 GNDA.t887 two_stage_opamp_dummy_magic_24_0.Vb1.t213 sky130_fd_pr__cap_mim_m3_1 l=2 w=2
X18 VDDA.t427 GNDA.t721 sky130_fd_pr__cap_mim_m3_1 l=2 w=2
X19 VDDA.t428 GNDA.t720 sky130_fd_pr__cap_mim_m3_1 l=2 w=2
X20 VOUT-.t19 two_stage_opamp_dummy_magic_24_0.cap_res_X.t138 sky130_fd_pr__cap_mim_m3_1 l=2 w=2
X21 VOUT+.t20 two_stage_opamp_dummy_magic_24_0.cap_res_Y.t137 sky130_fd_pr__cap_mim_m3_1 l=2 w=2
X22 VDDA.t81 bgr_11_0.PFET_GATE_10uA.t10 two_stage_opamp_dummy_magic_24_0.V_tail_gate.t8 VDDA.t80 sky130_fd_pr__pfet_01v8 ad=0.2 pd=1.4 as=0.2 ps=1.4 w=1 l=0.15
X23 VDDA.t429 GNDA.t719 sky130_fd_pr__cap_mim_m3_1 l=2 w=2
X24 GNDA.t888 two_stage_opamp_dummy_magic_24_0.Vb1.t212 sky130_fd_pr__cap_mim_m3_1 l=2 w=2
X25 VDDA.t430 GNDA.t718 sky130_fd_pr__cap_mim_m3_1 l=2 w=2
X26 GNDA.t889 two_stage_opamp_dummy_magic_24_0.Vb1.t211 sky130_fd_pr__cap_mim_m3_1 l=2 w=2
X27 VDDA.t431 GNDA.t717 sky130_fd_pr__cap_mim_m3_1 l=2 w=2
X28 VDDA.t432 GNDA.t716 sky130_fd_pr__cap_mim_m3_1 l=2 w=2
X29 VDDA.t433 GNDA.t715 sky130_fd_pr__cap_mim_m3_1 l=2 w=2
X30 VDDA.t361 VDDA.t359 two_stage_opamp_dummy_magic_24_0.VD3.t27 VDDA.t360 sky130_fd_pr__pfet_01v8 ad=1.4 pd=7.8 as=0.7 ps=3.9 w=3.5 l=0.2
X31 GNDA.t890 two_stage_opamp_dummy_magic_24_0.Vb1.t210 sky130_fd_pr__cap_mim_m3_1 l=2 w=2
X32 GNDA.t891 two_stage_opamp_dummy_magic_24_0.Vb1.t209 sky130_fd_pr__cap_mim_m3_1 l=2 w=2
X33 VDDA.t434 GNDA.t714 sky130_fd_pr__cap_mim_m3_1 l=2 w=2
X34 VDDA.t435 GNDA.t713 sky130_fd_pr__cap_mim_m3_1 l=2 w=2
X35 a_13430_3858.t1 two_stage_opamp_dummy_magic_24_0.V_CMFB_S2.t11 GNDA.t867 sky130_fd_pr__res_xhigh_po_0p35 l=1.75
X36 two_stage_opamp_dummy_magic_24_0.V_CMFB_S4.t14 bgr_11_0.NFET_GATE_10uA.t6 GNDA.t161 GNDA.t160 sky130_fd_pr__nfet_01v8 ad=0.2 pd=1.4 as=0.2 ps=1.4 w=1 l=0.15
X37 bgr_11_0.1st_Vout_1.t8 bgr_11_0.cap_res1.t19 sky130_fd_pr__cap_mim_m3_1 l=2 w=2
X38 VDDA.t436 GNDA.t712 sky130_fd_pr__cap_mim_m3_1 l=2 w=2
X39 VDDA.t437 GNDA.t711 sky130_fd_pr__cap_mim_m3_1 l=2 w=2
X40 VDDA.t438 GNDA.t710 sky130_fd_pr__cap_mim_m3_1 l=2 w=2
X41 GNDA.t892 two_stage_opamp_dummy_magic_24_0.Vb1.t208 sky130_fd_pr__cap_mim_m3_1 l=2 w=2
X42 VOUT-.t20 two_stage_opamp_dummy_magic_24_0.cap_res_X.t137 sky130_fd_pr__cap_mim_m3_1 l=2 w=2
X43 VDDA.t439 GNDA.t709 sky130_fd_pr__cap_mim_m3_1 l=2 w=2
X44 VOUT-.t21 two_stage_opamp_dummy_magic_24_0.cap_res_X.t136 sky130_fd_pr__cap_mim_m3_1 l=2 w=2
X45 GNDA.t743 GNDA.t845 bgr_11_0.sky130_fd_pr__rf_pnp_05v5_W3p40L3p40_25.Emitter.t8 sky130_fd_pr__pnp_05v5_W3p40L3p40
**devattr s=462400,2720
X46 bgr_11_0.V_TOP.t14 VDDA.t73 sky130_fd_pr__cap_mim_m3_1 l=2 w=2
X47 VOUT-.t22 two_stage_opamp_dummy_magic_24_0.cap_res_X.t135 sky130_fd_pr__cap_mim_m3_1 l=2 w=2
X48 VDDA.t440 GNDA.t708 sky130_fd_pr__cap_mim_m3_1 l=2 w=2
X49 VDDA.t441 GNDA.t707 sky130_fd_pr__cap_mim_m3_1 l=2 w=2
X50 VDDA.t442 GNDA.t706 sky130_fd_pr__cap_mim_m3_1 l=2 w=2
X51 VOUT-.t23 two_stage_opamp_dummy_magic_24_0.cap_res_X.t134 sky130_fd_pr__cap_mim_m3_1 l=2 w=2
X52 VDDA.t443 GNDA.t705 sky130_fd_pr__cap_mim_m3_1 l=2 w=2
X53 VDDA.t444 GNDA.t704 sky130_fd_pr__cap_mim_m3_1 l=2 w=2
X54 GNDA.t844 GNDA.t842 bgr_11_0.NFET_GATE_10uA.t2 GNDA.t843 sky130_fd_pr__nfet_01v8 ad=0.4 pd=2.8 as=0.2 ps=1.4 w=1 l=0.15
X55 GNDA.t893 two_stage_opamp_dummy_magic_24_0.Vb1.t207 sky130_fd_pr__cap_mim_m3_1 l=2 w=2
X56 two_stage_opamp_dummy_magic_24_0.V_err_gate.t5 bgr_11_0.NFET_GATE_10uA.t7 GNDA.t163 GNDA.t162 sky130_fd_pr__nfet_01v8 ad=0.2 pd=1.4 as=0.2 ps=1.4 w=1 l=0.15
X57 two_stage_opamp_dummy_magic_24_0.Vb2_2.t5 two_stage_opamp_dummy_magic_24_0.Vb2_2.t3 two_stage_opamp_dummy_magic_24_0.Vb2_2.t5 two_stage_opamp_dummy_magic_24_0.Vb2_2.t4 sky130_fd_pr__pfet_01v8 ad=0.7 pd=3.9 as=0 ps=0 w=3.5 l=0.2
X58 VDDA.t445 GNDA.t703 sky130_fd_pr__cap_mim_m3_1 l=2 w=2
X59 VDDA.t148 bgr_11_0.V_mir1.t11 bgr_11_0.V_mir1.t12 VDDA.t147 sky130_fd_pr__pfet_01v8 ad=0.2 pd=1.4 as=0.2 ps=1.4 w=1 l=0.2
X60 VDDA.t446 GNDA.t702 sky130_fd_pr__cap_mim_m3_1 l=2 w=2
X61 two_stage_opamp_dummy_magic_24_0.V_source.t25 two_stage_opamp_dummy_magic_24_0.V_tail_gate.t12 GNDA.t857 GNDA.t856 sky130_fd_pr__nfet_01v8 ad=0.5 pd=2.9 as=0.5 ps=2.9 w=2.5 l=0.15
X62 VDDA.t447 GNDA.t701 sky130_fd_pr__cap_mim_m3_1 l=2 w=2
X63 GNDA.t743 GNDA.t841 bgr_11_0.sky130_fd_pr__rf_pnp_05v5_W3p40L3p40_25.Emitter.t7 sky130_fd_pr__pnp_05v5_W3p40L3p40
**devattr s=462400,2720
X64 GNDA.t894 two_stage_opamp_dummy_magic_24_0.Vb1.t206 sky130_fd_pr__cap_mim_m3_1 l=2 w=2
X65 VDDA.t448 GNDA.t700 sky130_fd_pr__cap_mim_m3_1 l=2 w=2
X66 VDDA.t449 GNDA.t699 sky130_fd_pr__cap_mim_m3_1 l=2 w=2
X67 two_stage_opamp_dummy_magic_24_0.Y.t8 two_stage_opamp_dummy_magic_24_0.Vb2.t12 two_stage_opamp_dummy_magic_24_0.VD4.t7 two_stage_opamp_dummy_magic_24_0.VD4.t6 sky130_fd_pr__pfet_01v8 ad=0.7 pd=3.9 as=0.7 ps=3.9 w=3.5 l=0.2
X68 two_stage_opamp_dummy_magic_24_0.err_amp_mir.t1 VDDA.t356 VDDA.t358 VDDA.t357 sky130_fd_pr__pfet_01v8 ad=0.5 pd=2.9 as=1 ps=5.8 w=2.5 l=0.15
X69 GNDA.t895 two_stage_opamp_dummy_magic_24_0.Vb1.t205 sky130_fd_pr__cap_mim_m3_1 l=2 w=2
X70 VDDA.t416 bgr_11_0.1st_Vout_1.t9 bgr_11_0.V_TOP.t4 VDDA.t415 sky130_fd_pr__pfet_01v8 ad=0.2 pd=1.4 as=0.2 ps=1.4 w=1 l=0.2
X71 VDDA.t166 bgr_11_0.V_TOP.t15 two_stage_opamp_dummy_magic_24_0.V_err_amp_ref.t3 VDDA.t165 sky130_fd_pr__pfet_01v8 ad=0.6 pd=3.4 as=0.6 ps=3.4 w=3 l=0.5
X72 VDDA.t450 GNDA.t698 sky130_fd_pr__cap_mim_m3_1 l=2 w=2
X73 VDDA.t451 GNDA.t697 sky130_fd_pr__cap_mim_m3_1 l=2 w=2
X74 VOUT-.t24 two_stage_opamp_dummy_magic_24_0.cap_res_X.t133 sky130_fd_pr__cap_mim_m3_1 l=2 w=2
X75 bgr_11_0.V_TOP.t16 VDDA.t167 sky130_fd_pr__cap_mim_m3_1 l=2 w=2
X76 VDDA.t452 GNDA.t696 sky130_fd_pr__cap_mim_m3_1 l=2 w=2
X77 VDDA.t453 GNDA.t695 sky130_fd_pr__cap_mim_m3_1 l=2 w=2
X78 bgr_11_0.V_TOP.t11 VDDA.t353 VDDA.t355 VDDA.t354 sky130_fd_pr__pfet_01v8 ad=0.2 pd=1.4 as=0.45 ps=2.9 w=1 l=0.15
X79 VDDA.t454 GNDA.t694 sky130_fd_pr__cap_mim_m3_1 l=2 w=2
X80 VOUT+.t2 a_4380_346.t1 GNDA.t28 sky130_fd_pr__res_xhigh_po_0p35 l=2.63
X81 VDDA.t455 GNDA.t693 sky130_fd_pr__cap_mim_m3_1 l=2 w=2
X82 GNDA.t896 two_stage_opamp_dummy_magic_24_0.Vb1.t204 sky130_fd_pr__cap_mim_m3_1 l=2 w=2
X83 VDDA.t456 GNDA.t692 sky130_fd_pr__cap_mim_m3_1 l=2 w=2
X84 VDDA.t457 GNDA.t691 sky130_fd_pr__cap_mim_m3_1 l=2 w=2
X85 GNDA.t897 two_stage_opamp_dummy_magic_24_0.Vb1.t203 sky130_fd_pr__cap_mim_m3_1 l=2 w=2
X86 VOUT+.t9 two_stage_opamp_dummy_magic_24_0.Y.t25 VDDA.t244 VDDA.t243 sky130_fd_pr__pfet_01v8 ad=1.2 pd=6.4 as=1.2 ps=6.4 w=6 l=0.15
X87 VDDA.t458 GNDA.t690 sky130_fd_pr__cap_mim_m3_1 l=2 w=2
X88 bgr_11_0.V_TOP.t17 VDDA.t228 sky130_fd_pr__cap_mim_m3_1 l=2 w=2
X89 VDDA.t459 GNDA.t689 sky130_fd_pr__cap_mim_m3_1 l=2 w=2
X90 VOUT-.t25 two_stage_opamp_dummy_magic_24_0.cap_res_X.t132 sky130_fd_pr__cap_mim_m3_1 l=2 w=2
X91 GNDA.t130 two_stage_opamp_dummy_magic_24_0.X.t25 two_stage_opamp_dummy_magic_24_0.V_CMFB_S1.t9 VDDA.t177 sky130_fd_pr__pfet_01v8 ad=0.4 pd=2.4 as=0.4 ps=2.4 w=2 l=0.15
X92 GNDA.t898 two_stage_opamp_dummy_magic_24_0.Vb1.t202 sky130_fd_pr__cap_mim_m3_1 l=2 w=2
X93 VOUT-.t26 two_stage_opamp_dummy_magic_24_0.cap_res_X.t131 sky130_fd_pr__cap_mim_m3_1 l=2 w=2
X94 VOUT-.t27 two_stage_opamp_dummy_magic_24_0.cap_res_X.t130 sky130_fd_pr__cap_mim_m3_1 l=2 w=2
X95 two_stage_opamp_dummy_magic_24_0.VD3.t37 two_stage_opamp_dummy_magic_24_0.Vb3.t9 VDDA.t135 VDDA.t134 sky130_fd_pr__pfet_01v8 ad=0.7 pd=3.9 as=0.7 ps=3.9 w=3.5 l=0.2
X96 VDDA.t460 GNDA.t688 sky130_fd_pr__cap_mim_m3_1 l=2 w=2
X97 VOUT-.t28 two_stage_opamp_dummy_magic_24_0.cap_res_X.t129 sky130_fd_pr__cap_mim_m3_1 l=2 w=2
X98 bgr_11_0.PFET_GATE_10uA.t7 bgr_11_0.1st_Vout_2.t7 VDDA.t388 VDDA.t387 sky130_fd_pr__pfet_01v8 ad=0.2 pd=1.4 as=0.2 ps=1.4 w=1 l=0.2
X99 GNDA.t899 two_stage_opamp_dummy_magic_24_0.Vb1.t201 sky130_fd_pr__cap_mim_m3_1 l=2 w=2
X100 VDDA.t461 GNDA.t687 sky130_fd_pr__cap_mim_m3_1 l=2 w=2
X101 VOUT-.t29 two_stage_opamp_dummy_magic_24_0.cap_res_X.t128 sky130_fd_pr__cap_mim_m3_1 l=2 w=2
X102 VOUT+.t18 two_stage_opamp_dummy_magic_24_0.V_b_2nd_stage.t2 GNDA.t876 GNDA.t875 sky130_fd_pr__nfet_01v8 ad=1.4 pd=7.4 as=1.4 ps=7.4 w=7 l=0.6
X103 VOUT+.t21 two_stage_opamp_dummy_magic_24_0.cap_res_Y.t136 sky130_fd_pr__cap_mim_m3_1 l=2 w=2
X104 VDDA.t462 GNDA.t686 sky130_fd_pr__cap_mim_m3_1 l=2 w=2
X105 GNDA.t743 GNDA.t840 bgr_11_0.sky130_fd_pr__rf_pnp_05v5_W3p40L3p40_25.Emitter.t6 sky130_fd_pr__pnp_05v5_W3p40L3p40
**devattr s=462400,2720
X106 VDDA.t463 GNDA.t685 sky130_fd_pr__cap_mim_m3_1 l=2 w=2
X107 VDDA.t464 GNDA.t684 sky130_fd_pr__cap_mim_m3_1 l=2 w=2
X108 GNDA.t900 two_stage_opamp_dummy_magic_24_0.Vb1.t200 sky130_fd_pr__cap_mim_m3_1 l=2 w=2
X109 VDDA.t465 GNDA.t683 sky130_fd_pr__cap_mim_m3_1 l=2 w=2
X110 VOUT+.t22 two_stage_opamp_dummy_magic_24_0.cap_res_Y.t135 sky130_fd_pr__cap_mim_m3_1 l=2 w=2
X111 VDDA.t352 VDDA.t350 bgr_11_0.NFET_GATE_10uA.t1 VDDA.t351 sky130_fd_pr__pfet_01v8 ad=0.4 pd=2.8 as=0.2 ps=1.4 w=1 l=0.15
X112 VDDA.t13 two_stage_opamp_dummy_magic_24_0.X.t26 two_stage_opamp_dummy_magic_24_0.V_CMFB_S2.t1 GNDA.t27 sky130_fd_pr__nfet_01v8 ad=0.6 pd=3.4 as=0.6 ps=3.4 w=3 l=0.15
X113 GNDA.t901 two_stage_opamp_dummy_magic_24_0.Vb1.t199 sky130_fd_pr__cap_mim_m3_1 l=2 w=2
X114 VDDA.t466 GNDA.t682 sky130_fd_pr__cap_mim_m3_1 l=2 w=2
X115 VDDA.t20 bgr_11_0.V_mir1.t9 bgr_11_0.V_mir1.t10 VDDA.t19 sky130_fd_pr__pfet_01v8 ad=0.2 pd=1.4 as=0.2 ps=1.4 w=1 l=0.2
X116 two_stage_opamp_dummy_magic_24_0.V_source.t0 VIN-.t0 two_stage_opamp_dummy_magic_24_0.VD1.t9 GNDA.t10 sky130_fd_pr__nfet_01v8 ad=0.3 pd=1.9 as=0.3 ps=1.9 w=1.5 l=0.15
X117 VDDA.t467 GNDA.t681 sky130_fd_pr__cap_mim_m3_1 l=2 w=2
X118 VOUT+.t23 two_stage_opamp_dummy_magic_24_0.cap_res_Y.t134 sky130_fd_pr__cap_mim_m3_1 l=2 w=2
X119 two_stage_opamp_dummy_magic_24_0.V_err_gate.t1 two_stage_opamp_dummy_magic_24_0.V_tot.t4 two_stage_opamp_dummy_magic_24_0.V_err_mir_p.t3 VDDA.t221 sky130_fd_pr__pfet_01v8 ad=0.5 pd=2.9 as=0.5 ps=2.9 w=2.5 l=0.15
X120 GNDA.t859 two_stage_opamp_dummy_magic_24_0.V_tail_gate.t13 two_stage_opamp_dummy_magic_24_0.V_source.t24 GNDA.t858 sky130_fd_pr__nfet_01v8 ad=0.5 pd=2.9 as=0.5 ps=2.9 w=2.5 l=0.15
X121 bgr_11_0.V_TOP.t18 VDDA.t229 sky130_fd_pr__cap_mim_m3_1 l=2 w=2
X122 GNDA.t902 two_stage_opamp_dummy_magic_24_0.Vb1.t198 sky130_fd_pr__cap_mim_m3_1 l=2 w=2
X123 GNDA.t903 two_stage_opamp_dummy_magic_24_0.Vb1.t197 sky130_fd_pr__cap_mim_m3_1 l=2 w=2
X124 two_stage_opamp_dummy_magic_24_0.V_err_amp_ref.t5 VDDA.t347 VDDA.t349 VDDA.t348 sky130_fd_pr__pfet_01v8 ad=0.6 pd=3.4 as=1.2 ps=6.8 w=3 l=0.5
X125 VDDA.t468 GNDA.t680 sky130_fd_pr__cap_mim_m3_1 l=2 w=2
X126 VDDA.t469 GNDA.t679 sky130_fd_pr__cap_mim_m3_1 l=2 w=2
X127 VDDA.t470 GNDA.t678 sky130_fd_pr__cap_mim_m3_1 l=2 w=2
X128 VDDA.t471 GNDA.t677 sky130_fd_pr__cap_mim_m3_1 l=2 w=2
X129 GNDA.t904 two_stage_opamp_dummy_magic_24_0.Vb1.t196 sky130_fd_pr__cap_mim_m3_1 l=2 w=2
X130 GNDA.t905 two_stage_opamp_dummy_magic_24_0.Vb1.t195 sky130_fd_pr__cap_mim_m3_1 l=2 w=2
X131 VDDA.t472 GNDA.t676 sky130_fd_pr__cap_mim_m3_1 l=2 w=2
X132 VOUT+.t24 two_stage_opamp_dummy_magic_24_0.cap_res_Y.t133 sky130_fd_pr__cap_mim_m3_1 l=2 w=2
X133 VOUT-.t30 two_stage_opamp_dummy_magic_24_0.cap_res_X.t127 sky130_fd_pr__cap_mim_m3_1 l=2 w=2
X134 VDDA.t405 bgr_11_0.1st_Vout_2.t8 bgr_11_0.PFET_GATE_10uA.t9 VDDA.t404 sky130_fd_pr__pfet_01v8 ad=0.2 pd=1.4 as=0.2 ps=1.4 w=1 l=0.2
X135 VOUT+.t25 two_stage_opamp_dummy_magic_24_0.cap_res_Y.t132 sky130_fd_pr__cap_mim_m3_1 l=2 w=2
X136 two_stage_opamp_dummy_magic_24_0.VD2.t19 two_stage_opamp_dummy_magic_24_0.Vb1.t229 two_stage_opamp_dummy_magic_24_0.Y.t15 GNDA.t140 sky130_fd_pr__nfet_01v8 ad=0.3 pd=1.9 as=0.3 ps=1.9 w=1.5 l=0.15
X137 VDDA.t111 GNDA.t837 GNDA.t839 GNDA.t838 sky130_fd_pr__nfet_01v8 ad=0.6 pd=3.4 as=1.2 ps=6.8 w=3 l=0.15
X138 VDDA.t370 two_stage_opamp_dummy_magic_24_0.Y.t26 two_stage_opamp_dummy_magic_24_0.V_CMFB_S4.t11 GNDA.t847 sky130_fd_pr__nfet_01v8 ad=0.6 pd=3.4 as=0.6 ps=3.4 w=3 l=0.15
X139 VDDA.t473 GNDA.t675 sky130_fd_pr__cap_mim_m3_1 l=2 w=2
X140 VDDA.t371 two_stage_opamp_dummy_magic_24_0.Y.t27 two_stage_opamp_dummy_magic_24_0.V_CMFB_S4.t10 GNDA.t848 sky130_fd_pr__nfet_01v8 ad=0.6 pd=3.4 as=0.6 ps=3.4 w=3 l=0.15
X141 GNDA.t906 two_stage_opamp_dummy_magic_24_0.Vb1.t194 sky130_fd_pr__cap_mim_m3_1 l=2 w=2
X142 bgr_11_0.START_UP.t5 bgr_11_0.V_TOP.t19 VDDA.t117 VDDA.t116 sky130_fd_pr__pfet_01v8 ad=0.6 pd=3.4 as=0.6 ps=3.4 w=3 l=0.5
X143 VDDA.t474 GNDA.t674 sky130_fd_pr__cap_mim_m3_1 l=2 w=2
X144 VOUT-.t31 two_stage_opamp_dummy_magic_24_0.cap_res_X.t126 sky130_fd_pr__cap_mim_m3_1 l=2 w=2
X145 VDDA.t475 GNDA.t673 sky130_fd_pr__cap_mim_m3_1 l=2 w=2
X146 two_stage_opamp_dummy_magic_24_0.VD1.t8 VIN-.t1 two_stage_opamp_dummy_magic_24_0.V_source.t29 GNDA.t105 sky130_fd_pr__nfet_01v8 ad=0.3 pd=1.9 as=0.3 ps=1.9 w=1.5 l=0.15
X147 VDDA.t476 GNDA.t672 sky130_fd_pr__cap_mim_m3_1 l=2 w=2
X148 VDDA.t477 GNDA.t671 sky130_fd_pr__cap_mim_m3_1 l=2 w=2
X149 bgr_11_0.V_TOP.t20 VDDA.t118 sky130_fd_pr__cap_mim_m3_1 l=2 w=2
X150 GNDA.t907 two_stage_opamp_dummy_magic_24_0.Vb1.t193 sky130_fd_pr__cap_mim_m3_1 l=2 w=2
X151 GNDA.t908 two_stage_opamp_dummy_magic_24_0.Vb1.t192 sky130_fd_pr__cap_mim_m3_1 l=2 w=2
X152 VDDA.t478 GNDA.t670 sky130_fd_pr__cap_mim_m3_1 l=2 w=2
X153 VOUT-.t32 two_stage_opamp_dummy_magic_24_0.cap_res_X.t125 sky130_fd_pr__cap_mim_m3_1 l=2 w=2
X154 two_stage_opamp_dummy_magic_24_0.err_amp_out.t3 two_stage_opamp_dummy_magic_24_0.err_amp_mir.t5 GNDA.t869 GNDA.t868 sky130_fd_pr__nfet_01v8 ad=0.5 pd=2.9 as=0.5 ps=2.9 w=2.5 l=0.15
X155 bgr_11_0.1st_Vout_2.t9 bgr_11_0.cap_res2.t20 sky130_fd_pr__cap_mim_m3_1 l=2 w=2
X156 VDDA.t479 GNDA.t669 sky130_fd_pr__cap_mim_m3_1 l=2 w=2
X157 VDDA.t480 GNDA.t668 sky130_fd_pr__cap_mim_m3_1 l=2 w=2
X158 VOUT-.t33 two_stage_opamp_dummy_magic_24_0.cap_res_X.t124 sky130_fd_pr__cap_mim_m3_1 l=2 w=2
X159 VOUT-.t34 two_stage_opamp_dummy_magic_24_0.cap_res_X.t123 sky130_fd_pr__cap_mim_m3_1 l=2 w=2
X160 GNDA.t909 two_stage_opamp_dummy_magic_24_0.Vb1.t191 sky130_fd_pr__cap_mim_m3_1 l=2 w=2
X161 VDDA.t481 GNDA.t667 sky130_fd_pr__cap_mim_m3_1 l=2 w=2
X162 VDDA.t482 GNDA.t666 sky130_fd_pr__cap_mim_m3_1 l=2 w=2
X163 VDDA.t483 GNDA.t665 sky130_fd_pr__cap_mim_m3_1 l=2 w=2
X164 VDDA.t484 GNDA.t664 sky130_fd_pr__cap_mim_m3_1 l=2 w=2
X165 VOUT+.t26 two_stage_opamp_dummy_magic_24_0.cap_res_Y.t131 sky130_fd_pr__cap_mim_m3_1 l=2 w=2
X166 VOUT+.t27 two_stage_opamp_dummy_magic_24_0.cap_res_Y.t130 sky130_fd_pr__cap_mim_m3_1 l=2 w=2
X167 two_stage_opamp_dummy_magic_24_0.VD2.t4 VIN+.t0 two_stage_opamp_dummy_magic_24_0.V_source.t7 GNDA.t89 sky130_fd_pr__nfet_01v8 ad=0.3 pd=1.9 as=0.3 ps=1.9 w=1.5 l=0.15
X168 two_stage_opamp_dummy_magic_24_0.V_CMFB_S2.t6 two_stage_opamp_dummy_magic_24_0.X.t27 VDDA.t176 GNDA.t129 sky130_fd_pr__nfet_01v8 ad=0.6 pd=3.4 as=0.6 ps=3.4 w=3 l=0.15
X169 GNDA.t910 two_stage_opamp_dummy_magic_24_0.Vb1.t190 sky130_fd_pr__cap_mim_m3_1 l=2 w=2
X170 VDDA.t485 GNDA.t663 sky130_fd_pr__cap_mim_m3_1 l=2 w=2
X171 VOUT+.t28 two_stage_opamp_dummy_magic_24_0.cap_res_Y.t129 sky130_fd_pr__cap_mim_m3_1 l=2 w=2
X172 bgr_11_0.Vin+.t5 bgr_11_0.V_TOP.t21 VDDA.t194 VDDA.t193 sky130_fd_pr__pfet_01v8 ad=0.6 pd=3.4 as=0.6 ps=3.4 w=3 l=0.5
X173 VDDA.t42 bgr_11_0.V_mir2.t13 bgr_11_0.1st_Vout_2.t1 VDDA.t41 sky130_fd_pr__pfet_01v8 ad=0.2 pd=1.4 as=0.2 ps=1.4 w=1 l=0.2
X174 GNDA.t911 two_stage_opamp_dummy_magic_24_0.Vb1.t189 sky130_fd_pr__cap_mim_m3_1 l=2 w=2
X175 VDDA.t486 GNDA.t662 sky130_fd_pr__cap_mim_m3_1 l=2 w=2
X176 bgr_11_0.V_mir1.t0 bgr_11_0.Vin-.t8 bgr_11_0.V_p_1.t1 GNDA.t17 sky130_fd_pr__nfet_01v8 ad=1 pd=5.8 as=0.5 ps=2.9 w=2.5 l=0.2
X177 GNDA.t912 two_stage_opamp_dummy_magic_24_0.Vb1.t188 sky130_fd_pr__cap_mim_m3_1 l=2 w=2
X178 VDDA.t487 GNDA.t661 sky130_fd_pr__cap_mim_m3_1 l=2 w=2
X179 GNDA.t913 two_stage_opamp_dummy_magic_24_0.Vb1.t187 sky130_fd_pr__cap_mim_m3_1 l=2 w=2
X180 VDDA.t488 GNDA.t660 sky130_fd_pr__cap_mim_m3_1 l=2 w=2
X181 VOUT-.t35 two_stage_opamp_dummy_magic_24_0.cap_res_X.t122 sky130_fd_pr__cap_mim_m3_1 l=2 w=2
X182 VDDA.t489 GNDA.t659 sky130_fd_pr__cap_mim_m3_1 l=2 w=2
X183 VOUT-.t36 two_stage_opamp_dummy_magic_24_0.cap_res_X.t121 sky130_fd_pr__cap_mim_m3_1 l=2 w=2
X184 VDDA.t490 GNDA.t658 sky130_fd_pr__cap_mim_m3_1 l=2 w=2
X185 two_stage_opamp_dummy_magic_24_0.V_source.t23 two_stage_opamp_dummy_magic_24_0.V_tail_gate.t14 GNDA.t860 GNDA.t813 sky130_fd_pr__nfet_01v8 ad=0.5 pd=2.9 as=0.5 ps=2.9 w=2.5 l=0.15
X186 bgr_11_0.1st_Vout_2.t10 bgr_11_0.cap_res2.t19 sky130_fd_pr__cap_mim_m3_1 l=2 w=2
X187 VDDA.t491 GNDA.t657 sky130_fd_pr__cap_mim_m3_1 l=2 w=2
X188 VDDA.t492 GNDA.t656 sky130_fd_pr__cap_mim_m3_1 l=2 w=2
X189 GNDA.t914 two_stage_opamp_dummy_magic_24_0.Vb1.t186 sky130_fd_pr__cap_mim_m3_1 l=2 w=2
X190 VOUT-.t37 two_stage_opamp_dummy_magic_24_0.cap_res_X.t120 sky130_fd_pr__cap_mim_m3_1 l=2 w=2
X191 VDDA.t493 GNDA.t655 sky130_fd_pr__cap_mim_m3_1 l=2 w=2
X192 GNDA.t873 a_11300_28850.t1 GNDA.t872 sky130_fd_pr__res_xhigh_po_0p35 l=6
X193 VDDA.t346 VDDA.t343 VDDA.t345 VDDA.t344 sky130_fd_pr__pfet_01v8 ad=0.8 pd=4.8 as=0 ps=0 w=2 l=0.15
X194 a_4100_3858.t1 two_stage_opamp_dummy_magic_24_0.V_CMFB_S4.t0 GNDA.t147 sky130_fd_pr__res_xhigh_po_0p35 l=1.75
X195 VDDA.t494 GNDA.t654 sky130_fd_pr__cap_mim_m3_1 l=2 w=2
X196 VOUT-.t38 two_stage_opamp_dummy_magic_24_0.cap_res_X.t119 sky130_fd_pr__cap_mim_m3_1 l=2 w=2
X197 VOUT-.t17 a_13390_346.t1 GNDA.t871 sky130_fd_pr__res_xhigh_po_0p35 l=2.63
X198 GNDA.t915 two_stage_opamp_dummy_magic_24_0.Vb1.t185 sky130_fd_pr__cap_mim_m3_1 l=2 w=2
X199 VDDA.t495 GNDA.t653 sky130_fd_pr__cap_mim_m3_1 l=2 w=2
X200 bgr_11_0.1st_Vout_1.t10 bgr_11_0.cap_res1.t18 sky130_fd_pr__cap_mim_m3_1 l=2 w=2
X201 bgr_11_0.1st_Vout_2.t11 bgr_11_0.cap_res2.t18 sky130_fd_pr__cap_mim_m3_1 l=2 w=2
X202 GNDA.t916 two_stage_opamp_dummy_magic_24_0.Vb1.t184 sky130_fd_pr__cap_mim_m3_1 l=2 w=2
X203 VOUT-.t39 two_stage_opamp_dummy_magic_24_0.cap_res_X.t118 sky130_fd_pr__cap_mim_m3_1 l=2 w=2
X204 VOUT-.t40 two_stage_opamp_dummy_magic_24_0.cap_res_X.t117 sky130_fd_pr__cap_mim_m3_1 l=2 w=2
X205 two_stage_opamp_dummy_magic_24_0.VD4.t21 VDDA.t340 VDDA.t342 VDDA.t341 sky130_fd_pr__pfet_01v8 ad=0.7 pd=3.9 as=1.4 ps=7.8 w=3.5 l=0.2
X206 VDDA.t496 GNDA.t652 sky130_fd_pr__cap_mim_m3_1 l=2 w=2
X207 VDDA.t497 GNDA.t651 sky130_fd_pr__cap_mim_m3_1 l=2 w=2
X208 VDDA.t498 GNDA.t650 sky130_fd_pr__cap_mim_m3_1 l=2 w=2
X209 bgr_11_0.V_TOP.t22 VDDA.t195 sky130_fd_pr__cap_mim_m3_1 l=2 w=2
X210 VOUT-.t41 two_stage_opamp_dummy_magic_24_0.cap_res_X.t116 sky130_fd_pr__cap_mim_m3_1 l=2 w=2
X211 GNDA.t836 GNDA.t834 two_stage_opamp_dummy_magic_24_0.V_source.t37 GNDA.t835 sky130_fd_pr__nfet_01v8 ad=1 pd=5.8 as=0.5 ps=2.9 w=2.5 l=0.15
X212 VDDA.t499 GNDA.t649 sky130_fd_pr__cap_mim_m3_1 l=2 w=2
X213 two_stage_opamp_dummy_magic_24_0.Vb2_Vb3.t8 two_stage_opamp_dummy_magic_24_0.Vb2_Vb3.t5 two_stage_opamp_dummy_magic_24_0.Vb2_Vb3.t7 two_stage_opamp_dummy_magic_24_0.Vb2_Vb3.t6 sky130_fd_pr__pfet_01v8 ad=1.4 pd=7.8 as=0 ps=0 w=3.5 l=0.2
X214 VOUT+.t7 two_stage_opamp_dummy_magic_24_0.Y.t28 VDDA.t205 VDDA.t204 sky130_fd_pr__pfet_01v8 ad=1.2 pd=6.4 as=1.2 ps=6.4 w=6 l=0.15
X215 VOUT-.t5 two_stage_opamp_dummy_magic_24_0.V_b_2nd_stage.t3 GNDA.t104 GNDA.t103 sky130_fd_pr__nfet_01v8 ad=1.4 pd=7.4 as=1.4 ps=7.4 w=7 l=0.6
X216 VDDA.t500 GNDA.t648 sky130_fd_pr__cap_mim_m3_1 l=2 w=2
X217 GNDA.t917 two_stage_opamp_dummy_magic_24_0.Vb1.t183 sky130_fd_pr__cap_mim_m3_1 l=2 w=2
X218 VDDA.t501 GNDA.t647 sky130_fd_pr__cap_mim_m3_1 l=2 w=2
X219 VOUT+.t29 two_stage_opamp_dummy_magic_24_0.cap_res_Y.t128 sky130_fd_pr__cap_mim_m3_1 l=2 w=2
X220 VOUT+.t30 two_stage_opamp_dummy_magic_24_0.cap_res_Y.t127 sky130_fd_pr__cap_mim_m3_1 l=2 w=2
X221 VOUT+.t31 two_stage_opamp_dummy_magic_24_0.cap_res_Y.t126 sky130_fd_pr__cap_mim_m3_1 l=2 w=2
X222 VDDA.t502 GNDA.t646 sky130_fd_pr__cap_mim_m3_1 l=2 w=2
X223 bgr_11_0.V_mir2.t12 bgr_11_0.V_mir2.t11 VDDA.t170 VDDA.t169 sky130_fd_pr__pfet_01v8 ad=0.2 pd=1.4 as=0.2 ps=1.4 w=1 l=0.2
X224 VDDA.t65 bgr_11_0.V_TOP.t23 bgr_11_0.Vin-.t6 VDDA.t64 sky130_fd_pr__pfet_01v8 ad=0.6 pd=3.4 as=0.6 ps=3.4 w=3 l=0.5
X225 VDDA.t503 GNDA.t645 sky130_fd_pr__cap_mim_m3_1 l=2 w=2
X226 VOUT+.t32 two_stage_opamp_dummy_magic_24_0.cap_res_Y.t125 sky130_fd_pr__cap_mim_m3_1 l=2 w=2
X227 VOUT+.t33 two_stage_opamp_dummy_magic_24_0.cap_res_Y.t124 sky130_fd_pr__cap_mim_m3_1 l=2 w=2
X228 VOUT-.t42 two_stage_opamp_dummy_magic_24_0.cap_res_X.t115 sky130_fd_pr__cap_mim_m3_1 l=2 w=2
X229 GNDA.t0 two_stage_opamp_dummy_magic_24_0.X.t28 two_stage_opamp_dummy_magic_24_0.V_CMFB_S1.t8 VDDA.t0 sky130_fd_pr__pfet_01v8 ad=0.4 pd=2.4 as=0.4 ps=2.4 w=2 l=0.15
X230 GNDA.t918 two_stage_opamp_dummy_magic_24_0.Vb1.t182 sky130_fd_pr__cap_mim_m3_1 l=2 w=2
X231 GNDA.t919 two_stage_opamp_dummy_magic_24_0.Vb1.t181 sky130_fd_pr__cap_mim_m3_1 l=2 w=2
X232 VDDA.t504 GNDA.t644 sky130_fd_pr__cap_mim_m3_1 l=2 w=2
X233 GNDA.t920 two_stage_opamp_dummy_magic_24_0.Vb1.t180 sky130_fd_pr__cap_mim_m3_1 l=2 w=2
X234 VDDA.t505 GNDA.t643 sky130_fd_pr__cap_mim_m3_1 l=2 w=2
X235 VDDA.t506 GNDA.t642 sky130_fd_pr__cap_mim_m3_1 l=2 w=2
X236 GNDA.t921 two_stage_opamp_dummy_magic_24_0.Vb1.t179 sky130_fd_pr__cap_mim_m3_1 l=2 w=2
X237 two_stage_opamp_dummy_magic_24_0.VD1.t21 two_stage_opamp_dummy_magic_24_0.Vb1.t230 two_stage_opamp_dummy_magic_24_0.X.t16 GNDA.t141 sky130_fd_pr__nfet_01v8 ad=0.3 pd=1.9 as=0.3 ps=1.9 w=1.5 l=0.15
X238 VOUT-.t43 two_stage_opamp_dummy_magic_24_0.cap_res_X.t114 sky130_fd_pr__cap_mim_m3_1 l=2 w=2
X239 VDDA.t372 two_stage_opamp_dummy_magic_24_0.X.t29 two_stage_opamp_dummy_magic_24_0.V_CMFB_S2.t8 GNDA.t852 sky130_fd_pr__nfet_01v8 ad=0.6 pd=3.4 as=0.6 ps=3.4 w=3 l=0.15
X240 VDDA.t507 GNDA.t641 sky130_fd_pr__cap_mim_m3_1 l=2 w=2
X241 VDDA.t508 GNDA.t640 sky130_fd_pr__cap_mim_m3_1 l=2 w=2
X242 two_stage_opamp_dummy_magic_24_0.VD4.t9 two_stage_opamp_dummy_magic_24_0.Vb2.t13 two_stage_opamp_dummy_magic_24_0.Y.t7 two_stage_opamp_dummy_magic_24_0.VD4.t8 sky130_fd_pr__pfet_01v8 ad=0.7 pd=3.9 as=0.7 ps=3.9 w=3.5 l=0.2
X243 GNDA.t738 VDDA.t337 VDDA.t339 VDDA.t338 sky130_fd_pr__pfet_01v8 ad=0.4 pd=2.4 as=0.8 ps=4.8 w=2 l=0.15
X244 GNDA.t922 two_stage_opamp_dummy_magic_24_0.Vb1.t178 sky130_fd_pr__cap_mim_m3_1 l=2 w=2
X245 VOUT-.t44 two_stage_opamp_dummy_magic_24_0.cap_res_X.t113 sky130_fd_pr__cap_mim_m3_1 l=2 w=2
X246 VDDA.t158 two_stage_opamp_dummy_magic_24_0.V_err_gate.t6 two_stage_opamp_dummy_magic_24_0.V_err_mir_p.t2 VDDA.t157 sky130_fd_pr__pfet_01v8 ad=0.5 pd=2.9 as=0.5 ps=2.9 w=2.5 l=0.15
X247 GNDA.t142 two_stage_opamp_dummy_magic_24_0.Y.t29 two_stage_opamp_dummy_magic_24_0.V_CMFB_S3.t16 VDDA.t206 sky130_fd_pr__pfet_01v8 ad=0.4 pd=2.4 as=0.4 ps=2.4 w=2 l=0.15
X248 GNDA.t833 GNDA.t831 two_stage_opamp_dummy_magic_24_0.Vb1.t219 GNDA.t832 sky130_fd_pr__nfet_01v8 ad=0.6 pd=3.8 as=0.3 ps=1.9 w=1.5 l=0.15
X249 VDDA.t509 GNDA.t639 sky130_fd_pr__cap_mim_m3_1 l=2 w=2
X250 GNDA.t923 two_stage_opamp_dummy_magic_24_0.Vb1.t177 sky130_fd_pr__cap_mim_m3_1 l=2 w=2
X251 VOUT-.t45 two_stage_opamp_dummy_magic_24_0.cap_res_X.t112 sky130_fd_pr__cap_mim_m3_1 l=2 w=2
X252 VOUT+.t34 two_stage_opamp_dummy_magic_24_0.cap_res_Y.t123 sky130_fd_pr__cap_mim_m3_1 l=2 w=2
X253 GNDA.t138 two_stage_opamp_dummy_magic_24_0.Y.t30 two_stage_opamp_dummy_magic_24_0.V_CMFB_S3.t15 VDDA.t200 sky130_fd_pr__pfet_01v8 ad=0.4 pd=2.4 as=0.4 ps=2.4 w=2 l=0.15
X254 VDDA.t510 GNDA.t638 sky130_fd_pr__cap_mim_m3_1 l=2 w=2
X255 VDDA.t511 GNDA.t637 sky130_fd_pr__cap_mim_m3_1 l=2 w=2
X256 VDDA.t75 two_stage_opamp_dummy_magic_24_0.X.t30 VOUT-.t2 VDDA.t74 sky130_fd_pr__pfet_01v8 ad=1.2 pd=6.4 as=1.2 ps=6.4 w=6 l=0.15
X257 VDDA.t512 GNDA.t636 sky130_fd_pr__cap_mim_m3_1 l=2 w=2
X258 VOUT+.t35 two_stage_opamp_dummy_magic_24_0.cap_res_Y.t122 sky130_fd_pr__cap_mim_m3_1 l=2 w=2
X259 two_stage_opamp_dummy_magic_24_0.VD2.t18 two_stage_opamp_dummy_magic_24_0.Vb1.t231 two_stage_opamp_dummy_magic_24_0.Y.t14 GNDA.t14 sky130_fd_pr__nfet_01v8 ad=0.3 pd=1.9 as=0.3 ps=1.9 w=1.5 l=0.15
X260 GNDA.t924 two_stage_opamp_dummy_magic_24_0.Vb1.t176 sky130_fd_pr__cap_mim_m3_1 l=2 w=2
X261 VDDA.t513 GNDA.t635 sky130_fd_pr__cap_mim_m3_1 l=2 w=2
X262 VDDA.t336 VDDA.t334 VOUT-.t13 VDDA.t335 sky130_fd_pr__pfet_01v8 ad=2.4 pd=12.8 as=1.2 ps=6.4 w=6 l=0.15
X263 VDDA.t201 two_stage_opamp_dummy_magic_24_0.Y.t31 two_stage_opamp_dummy_magic_24_0.V_CMFB_S4.t9 GNDA.t139 sky130_fd_pr__nfet_01v8 ad=0.6 pd=3.4 as=0.6 ps=3.4 w=3 l=0.15
X264 GNDA.t925 two_stage_opamp_dummy_magic_24_0.Vb1.t175 sky130_fd_pr__cap_mim_m3_1 l=2 w=2
X265 GNDA.t926 two_stage_opamp_dummy_magic_24_0.Vb1.t174 sky130_fd_pr__cap_mim_m3_1 l=2 w=2
X266 VOUT-.t46 two_stage_opamp_dummy_magic_24_0.cap_res_X.t111 sky130_fd_pr__cap_mim_m3_1 l=2 w=2
X267 two_stage_opamp_dummy_magic_24_0.VD1.t20 two_stage_opamp_dummy_magic_24_0.Vb1.t232 two_stage_opamp_dummy_magic_24_0.X.t15 GNDA.t15 sky130_fd_pr__nfet_01v8 ad=0.3 pd=1.9 as=0.3 ps=1.9 w=1.5 l=0.15
X268 bgr_11_0.1st_Vout_2.t12 bgr_11_0.cap_res2.t17 sky130_fd_pr__cap_mim_m3_1 l=2 w=2
X269 VDDA.t514 GNDA.t634 sky130_fd_pr__cap_mim_m3_1 l=2 w=2
X270 VDDA.t515 GNDA.t633 sky130_fd_pr__cap_mim_m3_1 l=2 w=2
X271 a_5700_30308.t0 a_5820_29044.t1 GNDA.t34 sky130_fd_pr__res_xhigh_po_0p35 l=4.28
X272 VDDA.t516 GNDA.t632 sky130_fd_pr__cap_mim_m3_1 l=2 w=2
X273 VOUT-.t47 two_stage_opamp_dummy_magic_24_0.cap_res_X.t110 sky130_fd_pr__cap_mim_m3_1 l=2 w=2
X274 VDDA.t15 bgr_11_0.PFET_GATE_10uA.t11 two_stage_opamp_dummy_magic_24_0.V_CMFB_S3.t3 VDDA.t14 sky130_fd_pr__pfet_01v8 ad=0.2 pd=1.4 as=0.2 ps=1.4 w=1 l=0.15
X275 bgr_11_0.V_TOP.t24 VDDA.t66 sky130_fd_pr__cap_mim_m3_1 l=2 w=2
X276 VDDA.t517 GNDA.t631 sky130_fd_pr__cap_mim_m3_1 l=2 w=2
X277 VDDA.t518 GNDA.t630 sky130_fd_pr__cap_mim_m3_1 l=2 w=2
X278 two_stage_opamp_dummy_magic_24_0.V_CMFB_S3.t6 VDDA.t331 VDDA.t333 VDDA.t332 sky130_fd_pr__pfet_01v8 ad=0.2 pd=1.4 as=0.4 ps=2.8 w=1 l=0.15
X279 a_13550_3858.t1 two_stage_opamp_dummy_magic_24_0.V_CMFB_S1.t16 GNDA.t846 sky130_fd_pr__res_xhigh_po_0p35 l=1.75
X280 VDDA.t519 GNDA.t629 sky130_fd_pr__cap_mim_m3_1 l=2 w=2
X281 VDDA.t109 bgr_11_0.V_TOP.t25 bgr_11_0.Vin+.t4 VDDA.t108 sky130_fd_pr__pfet_01v8 ad=0.6 pd=3.4 as=0.6 ps=3.4 w=3 l=0.5
X282 GNDA.t927 two_stage_opamp_dummy_magic_24_0.Vb1.t173 sky130_fd_pr__cap_mim_m3_1 l=2 w=2
X283 VOUT+.t36 two_stage_opamp_dummy_magic_24_0.cap_res_Y.t121 sky130_fd_pr__cap_mim_m3_1 l=2 w=2
X284 VOUT+.t37 two_stage_opamp_dummy_magic_24_0.cap_res_Y.t120 sky130_fd_pr__cap_mim_m3_1 l=2 w=2
X285 VOUT-.t48 two_stage_opamp_dummy_magic_24_0.cap_res_X.t109 sky130_fd_pr__cap_mim_m3_1 l=2 w=2
X286 VDDA.t520 GNDA.t628 sky130_fd_pr__cap_mim_m3_1 l=2 w=2
X287 VOUT+.t38 two_stage_opamp_dummy_magic_24_0.cap_res_Y.t119 sky130_fd_pr__cap_mim_m3_1 l=2 w=2
X288 VOUT-.t49 two_stage_opamp_dummy_magic_24_0.cap_res_X.t108 sky130_fd_pr__cap_mim_m3_1 l=2 w=2
X289 VDDA.t521 GNDA.t627 sky130_fd_pr__cap_mim_m3_1 l=2 w=2
X290 VDDA.t522 GNDA.t626 sky130_fd_pr__cap_mim_m3_1 l=2 w=2
X291 VDDA.t523 GNDA.t625 sky130_fd_pr__cap_mim_m3_1 l=2 w=2
X292 GNDA.t830 GNDA.t828 two_stage_opamp_dummy_magic_24_0.Vb3.t6 GNDA.t829 sky130_fd_pr__nfet_01v8 ad=0.4 pd=2.8 as=0.2 ps=1.4 w=1 l=0.15
X293 two_stage_opamp_dummy_magic_24_0.V_CMFB_S1.t7 two_stage_opamp_dummy_magic_24_0.X.t31 GNDA.t123 VDDA.t168 sky130_fd_pr__pfet_01v8 ad=0.4 pd=2.4 as=0.4 ps=2.4 w=2 l=0.15
X294 VDDA.t524 GNDA.t624 sky130_fd_pr__cap_mim_m3_1 l=2 w=2
X295 GNDA.t928 two_stage_opamp_dummy_magic_24_0.Vb1.t172 sky130_fd_pr__cap_mim_m3_1 l=2 w=2
X296 VDDA.t525 GNDA.t623 sky130_fd_pr__cap_mim_m3_1 l=2 w=2
X297 VDDA.t526 GNDA.t622 sky130_fd_pr__cap_mim_m3_1 l=2 w=2
X298 GNDA.t929 two_stage_opamp_dummy_magic_24_0.Vb1.t171 sky130_fd_pr__cap_mim_m3_1 l=2 w=2
X299 VDDA.t527 GNDA.t621 sky130_fd_pr__cap_mim_m3_1 l=2 w=2
X300 VDDA.t150 bgr_11_0.V_mir1.t13 bgr_11_0.1st_Vout_1.t3 VDDA.t149 sky130_fd_pr__pfet_01v8 ad=0.2 pd=1.4 as=0.2 ps=1.4 w=1 l=0.2
X301 two_stage_opamp_dummy_magic_24_0.VD2.t5 VIN+.t1 two_stage_opamp_dummy_magic_24_0.V_source.t28 GNDA.t101 sky130_fd_pr__nfet_01v8 ad=0.3 pd=1.9 as=0.3 ps=1.9 w=1.5 l=0.15
X302 GNDA.t930 two_stage_opamp_dummy_magic_24_0.Vb1.t170 sky130_fd_pr__cap_mim_m3_1 l=2 w=2
X303 VDDA.t528 GNDA.t620 sky130_fd_pr__cap_mim_m3_1 l=2 w=2
X304 VDDA.t529 GNDA.t619 sky130_fd_pr__cap_mim_m3_1 l=2 w=2
X305 VDDA.t530 GNDA.t618 sky130_fd_pr__cap_mim_m3_1 l=2 w=2