* PEX produced on Mon Aug 25 12:40:01 AM CEST 2025 using /foss/tools/osic-multitool/iic-pex.sh with m=3 and s=1
* NGSPICE file created from bgr_opamp_dummy_magic_20.ext - technology: sky130A

.subckt bgr_opamp_dummy_magic_20 VDDA GNDA VOUT+ VOUT- VIN+ VIN-
X0 VDDA.t211 bgr_11_0.1st_Vout_2.t7 bgr_11_0.PFET_GATE_10uA.t8 VDDA.t210 sky130_fd_pr__pfet_01v8 ad=0.2 pd=1.4 as=0.2 ps=1.4 w=1 l=0.2
X1 two_stage_opamp_dummy_magic_29_0.VD4.t31 two_stage_opamp_dummy_magic_29_0.Vb3.t8 VDDA.t53 VDDA.t52 sky130_fd_pr__pfet_01v8 ad=0.7 pd=3.9 as=0.7 ps=3.9 w=3.5 l=0.2
X2 two_stage_opamp_dummy_magic_29_0.V_CMFB_S1.t16 two_stage_opamp_dummy_magic_29_0.X.t25 GNDA.t177 VDDA.t106 sky130_fd_pr__pfet_01v8 ad=0.4 pd=2.4 as=0.4 ps=2.4 w=2 l=0.15
X3 VDDA.t168 two_stage_opamp_dummy_magic_29_0.Y.t25 two_stage_opamp_dummy_magic_29_0.V_CMFB_S4.t10 GNDA.t121 sky130_fd_pr__nfet_01v8 ad=0.6 pd=3.4 as=0.6 ps=3.4 w=3 l=0.15
X4 GNDA.t65 two_stage_opamp_dummy_magic_29_0.V_tail_gate.t12 two_stage_opamp_dummy_magic_29_0.V_source.t39 GNDA.t3 sky130_fd_pr__nfet_01v8 ad=0.5 pd=2.9 as=0.5 ps=2.9 w=2.5 l=0.15
X5 GNDA.t276 GNDA.t274 two_stage_opamp_dummy_magic_29_0.Vb2.t9 GNDA.t275 sky130_fd_pr__nfet_01v8 ad=0.4 pd=2.8 as=0.2 ps=1.4 w=1 l=0.15
X6 two_stage_opamp_dummy_magic_29_0.V_CMFB_S2.t12 two_stage_opamp_dummy_magic_29_0.X.t26 VDDA.t51 GNDA.t176 sky130_fd_pr__nfet_01v8 ad=0.6 pd=3.4 as=0.6 ps=3.4 w=3 l=0.15
X7 GNDA.t4 two_stage_opamp_dummy_magic_29_0.V_tail_gate.t13 two_stage_opamp_dummy_magic_29_0.V_source.t38 GNDA.t3 sky130_fd_pr__nfet_01v8 ad=0.5 pd=2.9 as=0.5 ps=2.9 w=2.5 l=0.15
X8 VOUT-.t19 two_stage_opamp_dummy_magic_29_0.cap_res_X.t142 sky130_fd_pr__cap_mim_m3_1 l=2 w=2
X9 VOUT-.t20 two_stage_opamp_dummy_magic_29_0.cap_res_X.t141 sky130_fd_pr__cap_mim_m3_1 l=2 w=2
X10 two_stage_opamp_dummy_magic_29_0.cap_res_Y.t3 two_stage_opamp_dummy_magic_29_0.Y.t0 GNDA.t16 sky130_fd_pr__res_high_po_1p41 l=1.41
X11 VOUT+.t19 two_stage_opamp_dummy_magic_29_0.cap_res_Y.t2 sky130_fd_pr__cap_mim_m3_1 l=2 w=2
X12 two_stage_opamp_dummy_magic_29_0.VD4.t37 two_stage_opamp_dummy_magic_29_0.VD4.t35 two_stage_opamp_dummy_magic_29_0.Y.t21 two_stage_opamp_dummy_magic_29_0.VD4.t36 sky130_fd_pr__pfet_01v8 ad=1.4 pd=7.8 as=0.7 ps=3.9 w=3.5 l=0.2
X13 VDDA.t366 VDDA.t364 VOUT-.t6 VDDA.t365 sky130_fd_pr__pfet_01v8 ad=2.4 pd=12.8 as=1.2 ps=6.4 w=6 l=0.15
X14 VDDA.t140 bgr_11_0.V_TOP.t14 two_stage_opamp_dummy_magic_29_0.V_err_amp_ref.t3 VDDA.t139 sky130_fd_pr__pfet_01v8 ad=0.6 pd=3.4 as=0.6 ps=3.4 w=3 l=0.5
X15 two_stage_opamp_dummy_magic_29_0.VD2.t17 two_stage_opamp_dummy_magic_29_0.Vb1.t12 two_stage_opamp_dummy_magic_29_0.Y.t16 GNDA.t21 sky130_fd_pr__nfet_01v8 ad=0.3 pd=1.9 as=0.3 ps=1.9 w=1.5 l=0.15
X16 VOUT-.t21 two_stage_opamp_dummy_magic_29_0.cap_res_X.t140 sky130_fd_pr__cap_mim_m3_1 l=2 w=2
X17 VOUT+.t20 two_stage_opamp_dummy_magic_29_0.cap_res_Y.t122 sky130_fd_pr__cap_mim_m3_1 l=2 w=2
X18 bgr_11_0.1st_Vout_1.t7 bgr_11_0.cap_res1.t20 sky130_fd_pr__cap_mim_m3_1 l=2 w=2
X19 two_stage_opamp_dummy_magic_29_0.VD3.t19 two_stage_opamp_dummy_magic_29_0.Vb2.t11 two_stage_opamp_dummy_magic_29_0.X.t8 two_stage_opamp_dummy_magic_29_0.VD3.t18 sky130_fd_pr__pfet_01v8 ad=0.7 pd=3.9 as=0.7 ps=3.9 w=3.5 l=0.2
X20 two_stage_opamp_dummy_magic_29_0.Vb2.t1 bgr_11_0.NFET_GATE_10uA.t5 GNDA.t37 GNDA.t36 sky130_fd_pr__nfet_01v8 ad=0.2 pd=1.4 as=0.2 ps=1.4 w=1 l=0.15
X21 bgr_11_0.V_TOP.t15 VDDA.t141 sky130_fd_pr__cap_mim_m3_1 l=2 w=2
X22 GNDA.t71 bgr_11_0.NFET_GATE_10uA.t6 two_stage_opamp_dummy_magic_29_0.Vb2.t2 GNDA.t70 sky130_fd_pr__nfet_01v8 ad=0.2 pd=1.4 as=0.2 ps=1.4 w=1 l=0.15
X23 two_stage_opamp_dummy_magic_29_0.VD4.t30 two_stage_opamp_dummy_magic_29_0.Vb3.t9 VDDA.t55 VDDA.t54 sky130_fd_pr__pfet_01v8 ad=0.7 pd=3.9 as=0.7 ps=3.9 w=3.5 l=0.2
X24 VDDA.t363 VDDA.t360 VDDA.t362 VDDA.t361 sky130_fd_pr__pfet_01v8 ad=0.72 pd=4.4 as=0 ps=0 w=1.8 l=0.2
X25 bgr_11_0.START_UP_NFET1.t0 bgr_11_0.START_UP_NFET1 GNDA.t15 GNDA.t14 sky130_fd_pr__nfet_01v8 ad=0.2 pd=1.4 as=0.4 ps=2.8 w=1 l=10
X26 bgr_11_0.1st_Vout_1.t6 bgr_11_0.V_mir1.t13 VDDA.t414 VDDA.t413 sky130_fd_pr__pfet_01v8 ad=0.2 pd=1.4 as=0.2 ps=1.4 w=1 l=0.2
X27 two_stage_opamp_dummy_magic_29_0.VD3.t21 VDDA.t357 VDDA.t359 VDDA.t358 sky130_fd_pr__pfet_01v8 ad=0.7 pd=3.9 as=1.4 ps=7.8 w=3.5 l=0.2
X28 two_stage_opamp_dummy_magic_29_0.V_CMFB_S3.t9 two_stage_opamp_dummy_magic_29_0.Y.t26 GNDA.t69 VDDA.t116 sky130_fd_pr__pfet_01v8 ad=0.4 pd=2.4 as=0.4 ps=2.4 w=2 l=0.15
X29 VOUT+.t21 two_stage_opamp_dummy_magic_29_0.cap_res_Y.t123 sky130_fd_pr__cap_mim_m3_1 l=2 w=2
X30 a_3230_6968.t1 two_stage_opamp_dummy_magic_29_0.V_CMFB_S3.t10 GNDA.t135 sky130_fd_pr__res_xhigh_po_0p35 l=1.75
X31 VOUT-.t22 two_stage_opamp_dummy_magic_29_0.cap_res_X.t139 sky130_fd_pr__cap_mim_m3_1 l=2 w=2
X32 two_stage_opamp_dummy_magic_29_0.VD2.t3 VIN+.t0 two_stage_opamp_dummy_magic_29_0.V_source.t7 GNDA.t59 sky130_fd_pr__nfet_01v8 ad=0.3 pd=1.9 as=0.3 ps=1.9 w=1.5 l=0.15
X33 VOUT-.t23 two_stage_opamp_dummy_magic_29_0.cap_res_X.t138 sky130_fd_pr__cap_mim_m3_1 l=2 w=2
X34 bgr_11_0.V_TOP.t16 VDDA.t387 sky130_fd_pr__cap_mim_m3_1 l=2 w=2
X35 two_stage_opamp_dummy_magic_29_0.V_source.t37 two_stage_opamp_dummy_magic_29_0.V_tail_gate.t14 GNDA.t6 GNDA.t5 sky130_fd_pr__nfet_01v8 ad=0.5 pd=2.9 as=0.5 ps=2.9 w=2.5 l=0.15
X36 VOUT+.t22 two_stage_opamp_dummy_magic_29_0.cap_res_Y.t140 sky130_fd_pr__cap_mim_m3_1 l=2 w=2
X37 VDDA.t118 two_stage_opamp_dummy_magic_29_0.Y.t27 VOUT+.t10 VDDA.t117 sky130_fd_pr__pfet_01v8 ad=1.2 pd=6.4 as=1.2 ps=6.4 w=6 l=0.15
X38 VOUT-.t24 two_stage_opamp_dummy_magic_29_0.cap_res_X.t137 sky130_fd_pr__cap_mim_m3_1 l=2 w=2
X39 GNDA.t273 GNDA.t272 two_stage_opamp_dummy_magic_29_0.Vb1.t11 GNDA.t47 sky130_fd_pr__nfet_01v8 ad=0.6 pd=3.8 as=0.3 ps=1.9 w=1.5 l=0.15
X40 two_stage_opamp_dummy_magic_29_0.VD3.t17 two_stage_opamp_dummy_magic_29_0.Vb2.t12 two_stage_opamp_dummy_magic_29_0.X.t6 two_stage_opamp_dummy_magic_29_0.VD3.t16 sky130_fd_pr__pfet_01v8 ad=0.7 pd=3.9 as=0.7 ps=3.9 w=3.5 l=0.2
X41 VOUT+.t23 two_stage_opamp_dummy_magic_29_0.cap_res_Y.t141 sky130_fd_pr__cap_mim_m3_1 l=2 w=2
X42 VOUT+.t24 two_stage_opamp_dummy_magic_29_0.cap_res_Y.t66 sky130_fd_pr__cap_mim_m3_1 l=2 w=2
X43 a_6350_30238.t0 bgr_11_0.Vin+.t5 GNDA.t84 sky130_fd_pr__res_xhigh_po_0p35 l=6
X44 bgr_11_0.V_TOP.t17 VDDA.t388 sky130_fd_pr__cap_mim_m3_1 l=2 w=2
X45 two_stage_opamp_dummy_magic_29_0.V_err_gate.t2 bgr_11_0.NFET_GATE_10uA.t7 GNDA.t291 GNDA.t290 sky130_fd_pr__nfet_01v8 ad=0.2 pd=1.4 as=0.2 ps=1.4 w=1 l=0.15
X46 VOUT-.t25 two_stage_opamp_dummy_magic_29_0.cap_res_X.t136 sky130_fd_pr__cap_mim_m3_1 l=2 w=2
X47 VDDA.t171 a_6540_22450.t11 a_6540_22450.t12 VDDA.t170 sky130_fd_pr__pfet_01v8 ad=0.2 pd=1.4 as=0.2 ps=1.4 w=1 l=0.2
X48 two_stage_opamp_dummy_magic_29_0.VD3.t31 two_stage_opamp_dummy_magic_29_0.Vb3.t10 VDDA.t90 VDDA.t89 sky130_fd_pr__pfet_01v8 ad=0.7 pd=3.9 as=0.7 ps=3.9 w=3.5 l=0.2
X49 VDDA.t385 bgr_11_0.V_mir1.t10 bgr_11_0.V_mir1.t11 VDDA.t384 sky130_fd_pr__pfet_01v8 ad=0.2 pd=1.4 as=0.2 ps=1.4 w=1 l=0.2
X50 VOUT-.t26 two_stage_opamp_dummy_magic_29_0.cap_res_X.t135 sky130_fd_pr__cap_mim_m3_1 l=2 w=2
X51 two_stage_opamp_dummy_magic_29_0.err_amp_out.t1 two_stage_opamp_dummy_magic_29_0.err_amp_mir.t5 GNDA.t126 GNDA.t63 sky130_fd_pr__nfet_01v8 ad=0.5 pd=2.9 as=0.5 ps=2.9 w=2.5 l=0.15
X52 GNDA.t271 GNDA.t269 VOUT-.t18 GNDA.t270 sky130_fd_pr__nfet_01v8 ad=2.8 pd=14.8 as=1.4 ps=7.4 w=7 l=0.6
X53 two_stage_opamp_dummy_magic_29_0.V_CMFB_S3.t14 bgr_11_0.PFET_GATE_10uA.t10 VDDA.t249 VDDA.t248 sky130_fd_pr__pfet_01v8 ad=0.2 pd=1.4 as=0.2 ps=1.4 w=1 l=0.15
X54 GNDA.t68 two_stage_opamp_dummy_magic_29_0.Y.t28 two_stage_opamp_dummy_magic_29_0.V_CMFB_S3.t8 VDDA.t113 sky130_fd_pr__pfet_01v8 ad=0.4 pd=2.4 as=0.4 ps=2.4 w=2 l=0.15
X55 VDDA.t247 bgr_11_0.PFET_GATE_10uA.t11 two_stage_opamp_dummy_magic_29_0.V_CMFB_S3.t13 VDDA.t246 sky130_fd_pr__pfet_01v8 ad=0.2 pd=1.4 as=0.2 ps=1.4 w=1 l=0.15
X56 two_stage_opamp_dummy_magic_29_0.VD4.t21 VDDA.t354 VDDA.t356 VDDA.t355 sky130_fd_pr__pfet_01v8 ad=0.7 pd=3.9 as=1.4 ps=7.8 w=3.5 l=0.2
X57 VOUT-.t27 two_stage_opamp_dummy_magic_29_0.cap_res_X.t134 sky130_fd_pr__cap_mim_m3_1 l=2 w=2
X58 bgr_11_0.V_TOP.t18 VDDA.t14 sky130_fd_pr__cap_mim_m3_1 l=2 w=2
X59 bgr_11_0.cap_res1.t0 bgr_11_0.V_TOP.t0 GNDA.t13 sky130_fd_pr__res_high_po_0p35 l=2.05
X60 two_stage_opamp_dummy_magic_29_0.V_CMFB_S1.t15 two_stage_opamp_dummy_magic_29_0.X.t27 GNDA.t175 VDDA.t103 sky130_fd_pr__pfet_01v8 ad=0.4 pd=2.4 as=0.4 ps=2.4 w=2 l=0.15
X61 VOUT+.t25 two_stage_opamp_dummy_magic_29_0.cap_res_Y.t67 sky130_fd_pr__cap_mim_m3_1 l=2 w=2
X62 two_stage_opamp_dummy_magic_29_0.V_source.t5 two_stage_opamp_dummy_magic_29_0.Vb1.t13 two_stage_opamp_dummy_magic_29_0.Vb1_2.t0 GNDA.t43 sky130_fd_pr__nfet_01v8 ad=0.6 pd=3.8 as=0.6 ps=3.8 w=1.5 l=3
X63 VOUT-.t28 two_stage_opamp_dummy_magic_29_0.cap_res_X.t133 sky130_fd_pr__cap_mim_m3_1 l=2 w=2
X64 two_stage_opamp_dummy_magic_29_0.VD1.t11 two_stage_opamp_dummy_magic_29_0.Vb1.t14 two_stage_opamp_dummy_magic_29_0.X.t13 GNDA.t97 sky130_fd_pr__nfet_01v8 ad=0.3 pd=1.9 as=0.3 ps=1.9 w=1.5 l=0.15
X65 VOUT+.t26 two_stage_opamp_dummy_magic_29_0.cap_res_Y.t120 sky130_fd_pr__cap_mim_m3_1 l=2 w=2
X66 GNDA.t57 two_stage_opamp_dummy_magic_29_0.V_tail_gate.t15 two_stage_opamp_dummy_magic_29_0.V_source.t36 GNDA.t3 sky130_fd_pr__nfet_01v8 ad=0.5 pd=2.9 as=0.5 ps=2.9 w=2.5 l=0.15
X67 VOUT-.t29 two_stage_opamp_dummy_magic_29_0.cap_res_X.t132 sky130_fd_pr__cap_mim_m3_1 l=2 w=2
X68 VOUT-.t30 two_stage_opamp_dummy_magic_29_0.cap_res_X.t131 sky130_fd_pr__cap_mim_m3_1 l=2 w=2
X69 VOUT+.t27 two_stage_opamp_dummy_magic_29_0.cap_res_Y.t121 sky130_fd_pr__cap_mim_m3_1 l=2 w=2
X70 VDDA.t85 two_stage_opamp_dummy_magic_29_0.X.t28 VOUT-.t16 VDDA.t84 sky130_fd_pr__pfet_01v8 ad=1.2 pd=6.4 as=1.2 ps=6.4 w=6 l=0.15
X71 bgr_11_0.V_TOP.t19 VDDA.t15 sky130_fd_pr__cap_mim_m3_1 l=2 w=2
X72 bgr_11_0.1st_Vout_2.t8 bgr_11_0.cap_res2.t20 sky130_fd_pr__cap_mim_m3_1 l=2 w=2
X73 VDDA.t373 two_stage_opamp_dummy_magic_29_0.X.t29 VOUT-.t15 VDDA.t372 sky130_fd_pr__pfet_01v8 ad=1.2 pd=6.4 as=1.2 ps=6.4 w=6 l=0.15
X74 two_stage_opamp_dummy_magic_29_0.VD2.t16 two_stage_opamp_dummy_magic_29_0.Vb1.t15 two_stage_opamp_dummy_magic_29_0.Y.t15 GNDA.t112 sky130_fd_pr__nfet_01v8 ad=0.3 pd=1.9 as=0.3 ps=1.9 w=1.5 l=0.15
X75 two_stage_opamp_dummy_magic_29_0.V_b_2nd_stage.t1 a_3830_3166.t1 GNDA.t284 sky130_fd_pr__res_xhigh_po_0p35 l=2.63
X76 GNDA.t186 GNDA.t258 bgr_11_0.sky130_fd_pr__rf_pnp_05v5_W3p40L3p40_25.Emitter.t8 sky130_fd_pr__pnp_05v5_W3p40L3p40
**devattr s=462400,2720
X77 two_stage_opamp_dummy_magic_29_0.Vb2_Vb3.t9 VDDA.t351 VDDA.t353 VDDA.t352 sky130_fd_pr__pfet_01v8 ad=0.7 pd=3.9 as=1.4 ps=7.8 w=3.5 l=0.2
X78 VOUT-.t31 two_stage_opamp_dummy_magic_29_0.cap_res_X.t130 sky130_fd_pr__cap_mim_m3_1 l=2 w=2
X79 two_stage_opamp_dummy_magic_29_0.VD1.t10 two_stage_opamp_dummy_magic_29_0.Vb1.t16 two_stage_opamp_dummy_magic_29_0.X.t11 GNDA.t77 sky130_fd_pr__nfet_01v8 ad=0.3 pd=1.9 as=0.3 ps=1.9 w=1.5 l=0.15
X80 VOUT-.t32 two_stage_opamp_dummy_magic_29_0.cap_res_X.t129 sky130_fd_pr__cap_mim_m3_1 l=2 w=2
X81 VDDA.t209 bgr_11_0.1st_Vout_2.t9 bgr_11_0.PFET_GATE_10uA.t7 VDDA.t208 sky130_fd_pr__pfet_01v8 ad=0.2 pd=1.4 as=0.2 ps=1.4 w=1 l=0.2
X82 two_stage_opamp_dummy_magic_29_0.VD1.t1 VIN-.t0 two_stage_opamp_dummy_magic_29_0.V_source.t4 GNDA.t41 sky130_fd_pr__nfet_01v8 ad=0.3 pd=1.9 as=0.3 ps=1.9 w=1.5 l=0.15
X83 VOUT-.t33 two_stage_opamp_dummy_magic_29_0.cap_res_X.t128 sky130_fd_pr__cap_mim_m3_1 l=2 w=2
X84 VOUT+.t28 two_stage_opamp_dummy_magic_29_0.cap_res_Y.t138 sky130_fd_pr__cap_mim_m3_1 l=2 w=2
X85 bgr_11_0.1st_Vout_2.t10 bgr_11_0.cap_res2.t19 sky130_fd_pr__cap_mim_m3_1 l=2 w=2
X86 two_stage_opamp_dummy_magic_29_0.V_tail_gate.t9 bgr_11_0.PFET_GATE_10uA.t12 VDDA.t245 VDDA.t244 sky130_fd_pr__pfet_01v8 ad=0.2 pd=1.4 as=0.2 ps=1.4 w=1 l=0.15
X87 VOUT-.t34 two_stage_opamp_dummy_magic_29_0.cap_res_X.t127 sky130_fd_pr__cap_mim_m3_1 l=2 w=2
X88 VOUT-.t35 two_stage_opamp_dummy_magic_29_0.cap_res_X.t126 sky130_fd_pr__cap_mim_m3_1 l=2 w=2
X89 VOUT+.t29 two_stage_opamp_dummy_magic_29_0.cap_res_Y.t139 sky130_fd_pr__cap_mim_m3_1 l=2 w=2
X90 two_stage_opamp_dummy_magic_29_0.VD3.t15 two_stage_opamp_dummy_magic_29_0.Vb2.t13 two_stage_opamp_dummy_magic_29_0.X.t7 two_stage_opamp_dummy_magic_29_0.VD3.t14 sky130_fd_pr__pfet_01v8 ad=0.7 pd=3.9 as=0.7 ps=3.9 w=3.5 l=0.2
X91 bgr_11_0.sky130_fd_pr__rf_pnp_05v5_W3p40L3p40_25.Emitter.t0 bgr_11_0.Vin+.t0 GNDA.t42 sky130_fd_pr__res_xhigh_po_0p35 l=2.3
X92 two_stage_opamp_dummy_magic_29_0.VD2.t20 GNDA.t267 GNDA.t268 GNDA.t212 sky130_fd_pr__nfet_01v8 ad=0.3 pd=1.9 as=0.6 ps=3.8 w=1.5 l=0.15
X93 VOUT-.t36 two_stage_opamp_dummy_magic_29_0.cap_res_X.t125 sky130_fd_pr__cap_mim_m3_1 l=2 w=2
X94 bgr_11_0.1st_Vout_1.t8 bgr_11_0.cap_res1.t19 sky130_fd_pr__cap_mim_m3_1 l=2 w=2
X95 GNDA.t266 GNDA.t265 two_stage_opamp_dummy_magic_29_0.V_tail_gate.t11 GNDA.t0 sky130_fd_pr__nfet_01v8 ad=0.6 pd=3.8 as=0.3 ps=1.9 w=1.5 l=0.15
X96 two_stage_opamp_dummy_magic_29_0.VD1.t0 VIN-.t1 two_stage_opamp_dummy_magic_29_0.V_source.t0 GNDA.t0 sky130_fd_pr__nfet_01v8 ad=0.3 pd=1.9 as=0.3 ps=1.9 w=1.5 l=0.15
X97 bgr_11_0.1st_Vout_2.t11 bgr_11_0.cap_res2.t18 sky130_fd_pr__cap_mim_m3_1 l=2 w=2
X98 two_stage_opamp_dummy_magic_29_0.VD4.t11 two_stage_opamp_dummy_magic_29_0.Vb2.t14 two_stage_opamp_dummy_magic_29_0.Y.t9 two_stage_opamp_dummy_magic_29_0.VD4.t10 sky130_fd_pr__pfet_01v8 ad=0.7 pd=3.9 as=0.7 ps=3.9 w=3.5 l=0.2
X99 VDDA.t115 two_stage_opamp_dummy_magic_29_0.Y.t29 VOUT+.t9 VDDA.t114 sky130_fd_pr__pfet_01v8 ad=1.2 pd=6.4 as=1.2 ps=6.4 w=6 l=0.15
X100 VOUT-.t37 two_stage_opamp_dummy_magic_29_0.cap_res_X.t124 sky130_fd_pr__cap_mim_m3_1 l=2 w=2
X101 two_stage_opamp_dummy_magic_29_0.Vb1_2.t4 two_stage_opamp_dummy_magic_29_0.Vb1.t4 two_stage_opamp_dummy_magic_29_0.Vb1.t5 GNDA.t47 sky130_fd_pr__nfet_01v8 ad=0.3 pd=1.9 as=0.3 ps=1.9 w=1.5 l=0.15
X102 VDDA.t8 two_stage_opamp_dummy_magic_29_0.Y.t30 VOUT+.t8 VDDA.t7 sky130_fd_pr__pfet_01v8 ad=1.2 pd=6.4 as=1.2 ps=6.4 w=6 l=0.15
X103 bgr_11_0.V_TOP.t20 VDDA.t159 sky130_fd_pr__cap_mim_m3_1 l=2 w=2
X104 VDDA.t243 bgr_11_0.PFET_GATE_10uA.t13 two_stage_opamp_dummy_magic_29_0.V_CMFB_S1.t4 VDDA.t242 sky130_fd_pr__pfet_01v8 ad=0.2 pd=1.4 as=0.2 ps=1.4 w=1 l=0.15
X105 VOUT+.t30 two_stage_opamp_dummy_magic_29_0.cap_res_Y.t64 sky130_fd_pr__cap_mim_m3_1 l=2 w=2
X106 two_stage_opamp_dummy_magic_29_0.V_CMFB_S1.t6 VDDA.t348 VDDA.t350 VDDA.t349 sky130_fd_pr__pfet_01v8 ad=0.2 pd=1.4 as=0.4 ps=2.8 w=1 l=0.15
X107 VOUT+.t31 two_stage_opamp_dummy_magic_29_0.cap_res_Y.t65 sky130_fd_pr__cap_mim_m3_1 l=2 w=2
X108 VDDA.t193 a_6540_22450.t13 bgr_11_0.1st_Vout_2.t3 VDDA.t192 sky130_fd_pr__pfet_01v8 ad=0.2 pd=1.4 as=0.2 ps=1.4 w=1 l=0.2
X109 VDDA.t161 bgr_11_0.V_TOP.t21 two_stage_opamp_dummy_magic_29_0.V_err_amp_ref.t2 VDDA.t160 sky130_fd_pr__pfet_01v8 ad=0.6 pd=3.4 as=0.6 ps=3.4 w=3 l=0.5
X110 VOUT+.t32 two_stage_opamp_dummy_magic_29_0.cap_res_Y.t46 sky130_fd_pr__cap_mim_m3_1 l=2 w=2
X111 VOUT-.t38 two_stage_opamp_dummy_magic_29_0.cap_res_X.t123 sky130_fd_pr__cap_mim_m3_1 l=2 w=2
X112 VOUT-.t39 two_stage_opamp_dummy_magic_29_0.cap_res_X.t122 sky130_fd_pr__cap_mim_m3_1 l=2 w=2
X113 VOUT-.t40 two_stage_opamp_dummy_magic_29_0.cap_res_X.t121 sky130_fd_pr__cap_mim_m3_1 l=2 w=2
X114 VOUT-.t41 two_stage_opamp_dummy_magic_29_0.cap_res_X.t120 sky130_fd_pr__cap_mim_m3_1 l=2 w=2
X115 VDDA.t9 two_stage_opamp_dummy_magic_29_0.Y.t31 two_stage_opamp_dummy_magic_29_0.V_CMFB_S4.t9 GNDA.t12 sky130_fd_pr__nfet_01v8 ad=0.6 pd=3.4 as=0.6 ps=3.4 w=3 l=0.15
X116 VOUT-.t42 two_stage_opamp_dummy_magic_29_0.cap_res_X.t119 sky130_fd_pr__cap_mim_m3_1 l=2 w=2
X117 VOUT-.t17 GNDA.t262 GNDA.t264 GNDA.t263 sky130_fd_pr__nfet_01v8 ad=1.4 pd=7.4 as=2.8 ps=14.8 w=7 l=0.6
X118 two_stage_opamp_dummy_magic_29_0.VD4.t13 two_stage_opamp_dummy_magic_29_0.Vb2.t15 two_stage_opamp_dummy_magic_29_0.Y.t10 two_stage_opamp_dummy_magic_29_0.VD4.t12 sky130_fd_pr__pfet_01v8 ad=0.7 pd=3.9 as=0.7 ps=3.9 w=3.5 l=0.2
X119 VOUT+.t33 two_stage_opamp_dummy_magic_29_0.cap_res_Y.t47 sky130_fd_pr__cap_mim_m3_1 l=2 w=2
X120 VOUT+.t34 two_stage_opamp_dummy_magic_29_0.cap_res_Y.t118 sky130_fd_pr__cap_mim_m3_1 l=2 w=2
X121 two_stage_opamp_dummy_magic_29_0.VD1.t9 two_stage_opamp_dummy_magic_29_0.Vb1.t17 two_stage_opamp_dummy_magic_29_0.X.t15 GNDA.t125 sky130_fd_pr__nfet_01v8 ad=0.3 pd=1.9 as=0.3 ps=1.9 w=1.5 l=0.15
X122 bgr_11_0.1st_Vout_2.t12 bgr_11_0.cap_res2.t17 sky130_fd_pr__cap_mim_m3_1 l=2 w=2
X123 VOUT+.t35 two_stage_opamp_dummy_magic_29_0.cap_res_Y.t119 sky130_fd_pr__cap_mim_m3_1 l=2 w=2
X124 GNDA.t58 two_stage_opamp_dummy_magic_29_0.V_tail_gate.t16 two_stage_opamp_dummy_magic_29_0.V_source.t35 GNDA.t3 sky130_fd_pr__nfet_01v8 ad=0.5 pd=2.9 as=0.5 ps=2.9 w=2.5 l=0.15
X125 bgr_11_0.V_TOP.t22 VDDA.t418 sky130_fd_pr__cap_mim_m3_1 l=2 w=2
X126 VOUT-.t43 two_stage_opamp_dummy_magic_29_0.cap_res_X.t118 sky130_fd_pr__cap_mim_m3_1 l=2 w=2
X127 VOUT+.t36 two_stage_opamp_dummy_magic_29_0.cap_res_Y.t14 sky130_fd_pr__cap_mim_m3_1 l=2 w=2
X128 VDDA.t155 two_stage_opamp_dummy_magic_29_0.X.t30 VOUT-.t14 VDDA.t154 sky130_fd_pr__pfet_01v8 ad=1.2 pd=6.4 as=1.2 ps=6.4 w=6 l=0.15
X129 two_stage_opamp_dummy_magic_29_0.V_err_amp_ref.t5 VDDA.t345 VDDA.t347 VDDA.t346 sky130_fd_pr__pfet_01v8 ad=0.6 pd=3.4 as=1.2 ps=6.8 w=3 l=0.5
X130 VOUT-.t44 two_stage_opamp_dummy_magic_29_0.cap_res_X.t117 sky130_fd_pr__cap_mim_m3_1 l=2 w=2
X131 VOUT+.t37 two_stage_opamp_dummy_magic_29_0.cap_res_Y.t15 sky130_fd_pr__cap_mim_m3_1 l=2 w=2
X132 two_stage_opamp_dummy_magic_29_0.VD2.t15 two_stage_opamp_dummy_magic_29_0.Vb1.t18 two_stage_opamp_dummy_magic_29_0.Y.t11 GNDA.t46 sky130_fd_pr__nfet_01v8 ad=0.3 pd=1.9 as=0.3 ps=1.9 w=1.5 l=0.15
X133 VOUT-.t45 two_stage_opamp_dummy_magic_29_0.cap_res_X.t116 sky130_fd_pr__cap_mim_m3_1 l=2 w=2
X134 two_stage_opamp_dummy_magic_29_0.VD1.t8 two_stage_opamp_dummy_magic_29_0.Vb1.t19 two_stage_opamp_dummy_magic_29_0.X.t5 GNDA.t46 sky130_fd_pr__nfet_01v8 ad=0.3 pd=1.9 as=0.3 ps=1.9 w=1.5 l=0.15
X135 VOUT-.t46 two_stage_opamp_dummy_magic_29_0.cap_res_X.t115 sky130_fd_pr__cap_mim_m3_1 l=2 w=2
X136 VOUT-.t3 two_stage_opamp_dummy_magic_29_0.V_b_2nd_stage.t2 GNDA.t128 GNDA.t127 sky130_fd_pr__nfet_01v8 ad=1.4 pd=7.4 as=1.4 ps=7.4 w=7 l=0.6
X137 GNDA.t261 GNDA.t259 GNDA.t261 GNDA.t260 sky130_fd_pr__nfet_01v8 ad=0.5 pd=2.9 as=0 ps=0 w=2.5 l=0.15
X138 GNDA.t278 bgr_11_0.NFET_GATE_10uA.t8 two_stage_opamp_dummy_magic_29_0.Vb3.t6 GNDA.t277 sky130_fd_pr__nfet_01v8 ad=0.2 pd=1.4 as=0.2 ps=1.4 w=1 l=0.15
X139 VOUT-.t47 two_stage_opamp_dummy_magic_29_0.cap_res_X.t114 sky130_fd_pr__cap_mim_m3_1 l=2 w=2
X140 VDDA.t390 a_6540_22450.t9 a_6540_22450.t10 VDDA.t389 sky130_fd_pr__pfet_01v8 ad=0.2 pd=1.4 as=0.2 ps=1.4 w=1 l=0.2
X141 a_3110_6968.t1 two_stage_opamp_dummy_magic_29_0.V_CMFB_S4.t11 GNDA.t75 sky130_fd_pr__res_xhigh_po_0p35 l=1.75
X142 VOUT+.t38 two_stage_opamp_dummy_magic_29_0.cap_res_Y.t62 sky130_fd_pr__cap_mim_m3_1 l=2 w=2
X143 bgr_11_0.START_UP.t3 bgr_11_0.V_TOP.t23 VDDA.t420 VDDA.t419 sky130_fd_pr__pfet_01v8 ad=0.6 pd=3.4 as=0.6 ps=3.4 w=3 l=0.5
X144 VOUT+.t39 two_stage_opamp_dummy_magic_29_0.cap_res_Y.t63 sky130_fd_pr__cap_mim_m3_1 l=2 w=2
X145 two_stage_opamp_dummy_magic_29_0.VD1.t20 VIN-.t2 two_stage_opamp_dummy_magic_29_0.V_source.t20 GNDA.t76 sky130_fd_pr__nfet_01v8 ad=0.3 pd=1.9 as=0.3 ps=1.9 w=1.5 l=0.15
X146 VOUT+.t40 two_stage_opamp_dummy_magic_29_0.cap_res_Y.t16 sky130_fd_pr__cap_mim_m3_1 l=2 w=2
X147 a_11420_30238.t1 bgr_11_0.Vin-.t6 GNDA.t92 sky130_fd_pr__res_xhigh_po_0p35 l=6
X148 bgr_11_0.V_TOP.t12 VDDA.t342 VDDA.t344 VDDA.t343 sky130_fd_pr__pfet_01v8 ad=0.2 pd=1.4 as=0.45 ps=2.9 w=1 l=0.15
X149 GNDA.t91 a_11950_28880.t1 GNDA.t90 sky130_fd_pr__res_xhigh_po_0p35 l=4
X150 two_stage_opamp_dummy_magic_29_0.VD3.t13 two_stage_opamp_dummy_magic_29_0.Vb2.t16 two_stage_opamp_dummy_magic_29_0.X.t21 two_stage_opamp_dummy_magic_29_0.VD3.t12 sky130_fd_pr__pfet_01v8 ad=0.7 pd=3.9 as=0.7 ps=3.9 w=3.5 l=0.2
X151 bgr_11_0.V_TOP.t24 VDDA.t369 sky130_fd_pr__cap_mim_m3_1 l=2 w=2
X152 VDDA.t0 two_stage_opamp_dummy_magic_29_0.X.t31 two_stage_opamp_dummy_magic_29_0.V_CMFB_S2.t11 GNDA.t174 sky130_fd_pr__nfet_01v8 ad=0.6 pd=3.4 as=0.6 ps=3.4 w=3 l=0.15
X153 VOUT-.t48 two_stage_opamp_dummy_magic_29_0.cap_res_X.t113 sky130_fd_pr__cap_mim_m3_1 l=2 w=2
X154 VOUT+.t41 two_stage_opamp_dummy_magic_29_0.cap_res_Y.t17 sky130_fd_pr__cap_mim_m3_1 l=2 w=2
X155 VOUT+.t42 two_stage_opamp_dummy_magic_29_0.cap_res_Y.t12 sky130_fd_pr__cap_mim_m3_1 l=2 w=2
X156 bgr_11_0.Vin+.t4 bgr_11_0.V_TOP.t25 VDDA.t371 VDDA.t370 sky130_fd_pr__pfet_01v8 ad=0.6 pd=3.4 as=0.6 ps=3.4 w=3 l=0.5
X157 VDDA.t341 VDDA.t339 two_stage_opamp_dummy_magic_29_0.Vb2_2.t3 VDDA.t340 sky130_fd_pr__pfet_01v8 ad=0.72 pd=4.4 as=0.36 ps=2.2 w=1.8 l=0.2
X158 two_stage_opamp_dummy_magic_29_0.VD4.t19 two_stage_opamp_dummy_magic_29_0.Vb2.t17 two_stage_opamp_dummy_magic_29_0.Y.t19 two_stage_opamp_dummy_magic_29_0.VD4.t18 sky130_fd_pr__pfet_01v8 ad=0.7 pd=3.9 as=0.7 ps=3.9 w=3.5 l=0.2
X159 two_stage_opamp_dummy_magic_29_0.VD1.t18 VIN-.t3 two_stage_opamp_dummy_magic_29_0.V_source.t18 GNDA.t0 sky130_fd_pr__nfet_01v8 ad=0.3 pd=1.9 as=0.3 ps=1.9 w=1.5 l=0.15
X160 VOUT-.t49 two_stage_opamp_dummy_magic_29_0.cap_res_X.t112 sky130_fd_pr__cap_mim_m3_1 l=2 w=2
X161 VDDA.t173 bgr_11_0.V_mir1.t14 bgr_11_0.1st_Vout_1.t5 VDDA.t172 sky130_fd_pr__pfet_01v8 ad=0.2 pd=1.4 as=0.2 ps=1.4 w=1 l=0.2
X162 two_stage_opamp_dummy_magic_29_0.V_err_gate.t4 VDDA.t336 VDDA.t338 VDDA.t337 sky130_fd_pr__pfet_01v8 ad=0.5 pd=2.9 as=1 ps=5.8 w=2.5 l=0.15
X163 VDDA.t65 two_stage_opamp_dummy_magic_29_0.Y.t32 VOUT+.t7 VDDA.t64 sky130_fd_pr__pfet_01v8 ad=1.2 pd=6.4 as=1.2 ps=6.4 w=6 l=0.15
X164 VOUT-.t50 two_stage_opamp_dummy_magic_29_0.cap_res_X.t111 sky130_fd_pr__cap_mim_m3_1 l=2 w=2
X165 VOUT+.t43 two_stage_opamp_dummy_magic_29_0.cap_res_Y.t13 sky130_fd_pr__cap_mim_m3_1 l=2 w=2
X166 two_stage_opamp_dummy_magic_29_0.V_err_gate.t5 two_stage_opamp_dummy_magic_29_0.V_tot.t4 two_stage_opamp_dummy_magic_29_0.V_err_mir_p.t1 VDDA.t407 sky130_fd_pr__pfet_01v8 ad=0.5 pd=2.9 as=0.5 ps=2.9 w=2.5 l=0.15
X167 VOUT-.t51 two_stage_opamp_dummy_magic_29_0.cap_res_X.t110 sky130_fd_pr__cap_mim_m3_1 l=2 w=2
X168 VOUT-.t52 two_stage_opamp_dummy_magic_29_0.cap_res_X.t109 sky130_fd_pr__cap_mim_m3_1 l=2 w=2
X169 VOUT-.t53 two_stage_opamp_dummy_magic_29_0.cap_res_X.t108 sky130_fd_pr__cap_mim_m3_1 l=2 w=2
X170 VOUT+.t44 two_stage_opamp_dummy_magic_29_0.cap_res_Y.t86 sky130_fd_pr__cap_mim_m3_1 l=2 w=2
X171 bgr_11_0.1st_Vout_2.t13 bgr_11_0.cap_res2.t16 sky130_fd_pr__cap_mim_m3_1 l=2 w=2
X172 VDDA.t335 VDDA.t332 VDDA.t334 VDDA.t333 sky130_fd_pr__pfet_01v8 ad=0.8 pd=4.8 as=0 ps=0 w=2 l=0.15
X173 VDDA.t331 VDDA.t328 VDDA.t330 VDDA.t329 sky130_fd_pr__pfet_01v8 ad=0.4 pd=2.8 as=0 ps=0 w=1 l=0.15
X174 two_stage_opamp_dummy_magic_29_0.V_err_p.t3 two_stage_opamp_dummy_magic_29_0.V_err_gate.t6 VDDA.t189 VDDA.t188 sky130_fd_pr__pfet_01v8 ad=0.5 pd=2.9 as=0.5 ps=2.9 w=2.5 l=0.15
X175 VOUT+.t45 two_stage_opamp_dummy_magic_29_0.cap_res_Y.t87 sky130_fd_pr__cap_mim_m3_1 l=2 w=2
X176 VOUT+.t46 two_stage_opamp_dummy_magic_29_0.cap_res_Y.t126 sky130_fd_pr__cap_mim_m3_1 l=2 w=2
X177 two_stage_opamp_dummy_magic_29_0.err_amp_mir.t3 VDDA.t325 VDDA.t327 VDDA.t326 sky130_fd_pr__pfet_01v8 ad=0.5 pd=2.9 as=1 ps=5.8 w=2.5 l=0.15
X178 VOUT+.t47 two_stage_opamp_dummy_magic_29_0.cap_res_Y.t127 sky130_fd_pr__cap_mim_m3_1 l=2 w=2
X179 VOUT-.t54 two_stage_opamp_dummy_magic_29_0.cap_res_X.t107 sky130_fd_pr__cap_mim_m3_1 l=2 w=2
X180 VDDA.t241 bgr_11_0.PFET_GATE_10uA.t14 two_stage_opamp_dummy_magic_29_0.V_tail_gate.t8 VDDA.t240 sky130_fd_pr__pfet_01v8 ad=0.2 pd=1.4 as=0.2 ps=1.4 w=1 l=0.15
X181 GNDA.t257 GNDA.t256 two_stage_opamp_dummy_magic_29_0.VD1.t15 GNDA.t203 sky130_fd_pr__nfet_01v8 ad=0.6 pd=3.8 as=0.3 ps=1.9 w=1.5 l=0.15
X182 VOUT+.t48 two_stage_opamp_dummy_magic_29_0.cap_res_Y.t32 sky130_fd_pr__cap_mim_m3_1 l=2 w=2
X183 GNDA.t50 two_stage_opamp_dummy_magic_29_0.Y.t33 two_stage_opamp_dummy_magic_29_0.V_CMFB_S3.t7 VDDA.t66 sky130_fd_pr__pfet_01v8 ad=0.4 pd=2.4 as=0.4 ps=2.4 w=2 l=0.15
X184 two_stage_opamp_dummy_magic_29_0.V_CMFB_S4.t14 bgr_11_0.NFET_GATE_10uA.t9 GNDA.t289 GNDA.t288 sky130_fd_pr__nfet_01v8 ad=0.2 pd=1.4 as=0.2 ps=1.4 w=1 l=0.15
X185 two_stage_opamp_dummy_magic_29_0.Vb2_Vb3.t6 two_stage_opamp_dummy_magic_29_0.Vb2_Vb3.t4 two_stage_opamp_dummy_magic_29_0.Vb3.t7 two_stage_opamp_dummy_magic_29_0.Vb2_Vb3.t5 sky130_fd_pr__pfet_01v8 ad=1.4 pd=7.8 as=0.7 ps=3.9 w=3.5 l=0.2
X186 VDDA.t410 two_stage_opamp_dummy_magic_29_0.Y.t34 two_stage_opamp_dummy_magic_29_0.V_CMFB_S4.t8 GNDA.t285 sky130_fd_pr__nfet_01v8 ad=0.6 pd=3.4 as=0.6 ps=3.4 w=3 l=0.15
X187 VOUT-.t55 two_stage_opamp_dummy_magic_29_0.cap_res_X.t106 sky130_fd_pr__cap_mim_m3_1 l=2 w=2
X188 two_stage_opamp_dummy_magic_29_0.Vb2.t10 bgr_11_0.NFET_GATE_10uA.t10 GNDA.t287 GNDA.t286 sky130_fd_pr__nfet_01v8 ad=0.2 pd=1.4 as=0.2 ps=1.4 w=1 l=0.15
X189 VDDA.t402 bgr_11_0.V_TOP.t26 bgr_11_0.Vin-.t3 VDDA.t401 sky130_fd_pr__pfet_01v8 ad=0.6 pd=3.4 as=0.6 ps=3.4 w=3 l=0.5
X190 VOUT+.t49 two_stage_opamp_dummy_magic_29_0.cap_res_Y.t33 sky130_fd_pr__cap_mim_m3_1 l=2 w=2
X191 GNDA.t101 two_stage_opamp_dummy_magic_29_0.V_tail_gate.t17 two_stage_opamp_dummy_magic_29_0.V_p_mir.t2 GNDA.t100 sky130_fd_pr__nfet_01v8 ad=0.5 pd=2.9 as=0.5 ps=2.9 w=2.5 l=0.15
X192 VDDA.t324 VDDA.t322 bgr_11_0.V_TOP.t11 VDDA.t323 sky130_fd_pr__pfet_01v8 ad=0.4 pd=2.8 as=0.2 ps=1.4 w=1 l=0.2
X193 VDDA.t321 VDDA.t319 two_stage_opamp_dummy_magic_29_0.VD3.t20 VDDA.t320 sky130_fd_pr__pfet_01v8 ad=1.4 pd=7.8 as=0.7 ps=3.9 w=3.5 l=0.2
X194 GNDA.t255 GNDA.t254 two_stage_opamp_dummy_magic_29_0.VD2.t19 GNDA.t0 sky130_fd_pr__nfet_01v8 ad=0.6 pd=3.8 as=0.3 ps=1.9 w=1.5 l=0.15
X195 VOUT-.t56 two_stage_opamp_dummy_magic_29_0.cap_res_X.t105 sky130_fd_pr__cap_mim_m3_1 l=2 w=2
X196 GNDA.t186 GNDA.t243 bgr_11_0.sky130_fd_pr__rf_pnp_05v5_W3p40L3p40_25.Emitter.t7 sky130_fd_pr__pnp_05v5_W3p40L3p40
**devattr s=462400,2720
X197 GNDA.t102 two_stage_opamp_dummy_magic_29_0.V_tail_gate.t18 two_stage_opamp_dummy_magic_29_0.V_source.t34 GNDA.t3 sky130_fd_pr__nfet_01v8 ad=0.5 pd=2.9 as=0.5 ps=2.9 w=2.5 l=0.15
X198 VOUT+.t12 a_3830_3166.t0 GNDA.t82 sky130_fd_pr__res_xhigh_po_0p35 l=2.63
X199 VOUT+.t50 two_stage_opamp_dummy_magic_29_0.cap_res_Y.t40 sky130_fd_pr__cap_mim_m3_1 l=2 w=2
X200 two_stage_opamp_dummy_magic_29_0.VD4.t29 two_stage_opamp_dummy_magic_29_0.Vb3.t11 VDDA.t28 VDDA.t27 sky130_fd_pr__pfet_01v8 ad=0.7 pd=3.9 as=0.7 ps=3.9 w=3.5 l=0.2
X201 VOUT-.t57 two_stage_opamp_dummy_magic_29_0.cap_res_X.t104 sky130_fd_pr__cap_mim_m3_1 l=2 w=2
X202 VOUT-.t58 two_stage_opamp_dummy_magic_29_0.cap_res_X.t103 sky130_fd_pr__cap_mim_m3_1 l=2 w=2
X203 VDDA.t105 two_stage_opamp_dummy_magic_29_0.X.t32 VOUT-.t13 VDDA.t104 sky130_fd_pr__pfet_01v8 ad=1.2 pd=6.4 as=1.2 ps=6.4 w=6 l=0.15
X204 bgr_11_0.1st_Vout_1.t9 bgr_11_0.cap_res1.t18 sky130_fd_pr__cap_mim_m3_1 l=2 w=2
X205 VOUT+.t51 two_stage_opamp_dummy_magic_29_0.cap_res_Y.t41 sky130_fd_pr__cap_mim_m3_1 l=2 w=2
X206 GNDA.t218 GNDA.t242 bgr_11_0.sky130_fd_pr__rf_pnp_05v5_W3p40L3p40_25.Emitter.t6 sky130_fd_pr__pnp_05v5_W3p40L3p40
**devattr s=462400,2720
X207 VDDA.t137 bgr_11_0.1st_Vout_1.t10 bgr_11_0.V_TOP.t3 VDDA.t136 sky130_fd_pr__pfet_01v8 ad=0.2 pd=1.4 as=0.2 ps=1.4 w=1 l=0.2
X208 VOUT+.t52 two_stage_opamp_dummy_magic_29_0.cap_res_Y.t44 sky130_fd_pr__cap_mim_m3_1 l=2 w=2
X209 bgr_11_0.START_UP.t5 bgr_11_0.START_UP.t4 bgr_11_0.START_UP_NFET1.t0 GNDA.t74 sky130_fd_pr__nfet_01v8 ad=0.4 pd=2.8 as=0.2 ps=1.4 w=1 l=10
X210 VOUT+.t53 two_stage_opamp_dummy_magic_29_0.cap_res_Y.t45 sky130_fd_pr__cap_mim_m3_1 l=2 w=2
X211 GNDA.t64 two_stage_opamp_dummy_magic_29_0.err_amp_mir.t0 two_stage_opamp_dummy_magic_29_0.err_amp_mir.t1 GNDA.t63 sky130_fd_pr__nfet_01v8 ad=0.5 pd=2.9 as=0.5 ps=2.9 w=2.5 l=0.15
X212 two_stage_opamp_dummy_magic_29_0.VD1.t7 two_stage_opamp_dummy_magic_29_0.Vb1.t20 two_stage_opamp_dummy_magic_29_0.X.t14 GNDA.t46 sky130_fd_pr__nfet_01v8 ad=0.3 pd=1.9 as=0.3 ps=1.9 w=1.5 l=0.15
X213 VOUT-.t59 two_stage_opamp_dummy_magic_29_0.cap_res_X.t102 sky130_fd_pr__cap_mim_m3_1 l=2 w=2
X214 two_stage_opamp_dummy_magic_29_0.V_source.t3 two_stage_opamp_dummy_magic_29_0.err_amp_out.t4 GNDA.t40 GNDA.t39 sky130_fd_pr__nfet_01v8 ad=0.5 pd=2.9 as=0.5 ps=2.9 w=2.5 l=0.15
X215 bgr_11_0.NFET_GATE_10uA.t1 bgr_11_0.NFET_GATE_10uA.t0 GNDA.t104 GNDA.t103 sky130_fd_pr__nfet_01v8 ad=0.2 pd=1.4 as=0.2 ps=1.4 w=1 l=0.15
X216 VOUT+.t54 two_stage_opamp_dummy_magic_29_0.cap_res_Y.t26 sky130_fd_pr__cap_mim_m3_1 l=2 w=2
X217 VDDA.t404 bgr_11_0.V_TOP.t27 bgr_11_0.Vin+.t3 VDDA.t403 sky130_fd_pr__pfet_01v8 ad=0.6 pd=3.4 as=0.6 ps=3.4 w=3 l=0.5
X218 VOUT+.t55 two_stage_opamp_dummy_magic_29_0.cap_res_Y.t27 sky130_fd_pr__cap_mim_m3_1 l=2 w=2
X219 VOUT+.t56 two_stage_opamp_dummy_magic_29_0.cap_res_Y.t24 sky130_fd_pr__cap_mim_m3_1 l=2 w=2
X220 GNDA.t173 two_stage_opamp_dummy_magic_29_0.X.t33 two_stage_opamp_dummy_magic_29_0.V_CMFB_S1.t14 VDDA.t156 sky130_fd_pr__pfet_01v8 ad=0.4 pd=2.4 as=0.4 ps=2.4 w=2 l=0.15
X221 bgr_11_0.1st_Vout_1.t11 bgr_11_0.cap_res1.t17 sky130_fd_pr__cap_mim_m3_1 l=2 w=2
X222 VOUT-.t60 two_stage_opamp_dummy_magic_29_0.cap_res_X.t101 sky130_fd_pr__cap_mim_m3_1 l=2 w=2
X223 VDDA.t367 two_stage_opamp_dummy_magic_29_0.X.t34 two_stage_opamp_dummy_magic_29_0.V_CMFB_S2.t10 GNDA.t172 sky130_fd_pr__nfet_01v8 ad=0.6 pd=3.4 as=0.6 ps=3.4 w=3 l=0.15
X224 VDDA.t318 VDDA.t316 two_stage_opamp_dummy_magic_29_0.VD4.t20 VDDA.t317 sky130_fd_pr__pfet_01v8 ad=1.4 pd=7.8 as=0.7 ps=3.9 w=3.5 l=0.2
X225 two_stage_opamp_dummy_magic_29_0.X.t22 two_stage_opamp_dummy_magic_29_0.Vb1.t21 two_stage_opamp_dummy_magic_29_0.VD1.t6 GNDA.t178 sky130_fd_pr__nfet_01v8 ad=0.3 pd=1.9 as=0.3 ps=1.9 w=1.5 l=0.15
X226 VOUT+.t57 two_stage_opamp_dummy_magic_29_0.cap_res_Y.t25 sky130_fd_pr__cap_mim_m3_1 l=2 w=2
X227 VOUT+.t58 two_stage_opamp_dummy_magic_29_0.cap_res_Y.t84 sky130_fd_pr__cap_mim_m3_1 l=2 w=2
X228 VDDA.t386 two_stage_opamp_dummy_magic_29_0.X.t35 two_stage_opamp_dummy_magic_29_0.V_CMFB_S2.t9 GNDA.t171 sky130_fd_pr__nfet_01v8 ad=0.6 pd=3.4 as=0.6 ps=3.4 w=3 l=0.15
X229 VOUT-.t61 two_stage_opamp_dummy_magic_29_0.cap_res_X.t100 sky130_fd_pr__cap_mim_m3_1 l=2 w=2