* NGSPICE file created from bgr_opamp_dummy_magic_11.ext - technology: sky130A

.subckt sky130_fd_pr__rf_pnp_05v5_W3p40L3p40 Emitter Collector Base m=1
X0 Collector Base Emitter sky130_fd_pr__pnp_05v5_W3p40L3p40
**devattr s=462400,2720
.ends

.subckt bgr VDDA ERR_AMP_REF V_CMFB_S3 VB1_CUR_BIAS TAIL_CUR_MIR_BIAS V_CMFB_S1 ERR_AMP_CUR_BIAS
+ VB3_CUR_BIAS V_CMFB_S4 V_CMFB_S2 VB2_CUR_BIAS GNDA
Xsky130_fd_pr__rf_pnp_05v5_W3p40L3p40_8 sky130_fd_pr__rf_pnp_05v5_W3p40L3p40_8/Emitter
+ GNDA GNDA sky130_fd_pr__rf_pnp_05v5_W3p40L3p40 m=1
Xsky130_fd_pr__rf_pnp_05v5_W3p40L3p40_20 sky130_fd_pr__rf_pnp_05v5_W3p40L3p40_8/Emitter
+ GNDA GNDA sky130_fd_pr__rf_pnp_05v5_W3p40L3p40 m=1
Xsky130_fd_pr__rf_pnp_05v5_W3p40L3p40_21 sky130_fd_pr__rf_pnp_05v5_W3p40L3p40_8/Emitter
+ GNDA GNDA sky130_fd_pr__rf_pnp_05v5_W3p40L3p40 m=1
Xsky130_fd_pr__rf_pnp_05v5_W3p40L3p40_22 sky130_fd_pr__rf_pnp_05v5_W3p40L3p40_8/Emitter
+ GNDA GNDA sky130_fd_pr__rf_pnp_05v5_W3p40L3p40 m=1
Xsky130_fd_pr__rf_pnp_05v5_W3p40L3p40_23 Vin- GNDA GNDA sky130_fd_pr__rf_pnp_05v5_W3p40L3p40 m=1
Xsky130_fd_pr__rf_pnp_05v5_W3p40L3p40_24 sky130_fd_pr__rf_pnp_05v5_W3p40L3p40_8/Emitter
+ GNDA GNDA sky130_fd_pr__rf_pnp_05v5_W3p40L3p40 m=1
Xsky130_fd_pr__rf_pnp_05v5_W3p40L3p40_25 sky130_fd_pr__rf_pnp_05v5_W3p40L3p40_8/Emitter
+ GNDA GNDA sky130_fd_pr__rf_pnp_05v5_W3p40L3p40 m=1
Xsky130_fd_pr__rf_pnp_05v5_W3p40L3p40_18 sky130_fd_pr__rf_pnp_05v5_W3p40L3p40_8/Emitter
+ GNDA GNDA sky130_fd_pr__rf_pnp_05v5_W3p40L3p40 m=1
Xsky130_fd_pr__rf_pnp_05v5_W3p40L3p40_19 sky130_fd_pr__rf_pnp_05v5_W3p40L3p40_8/Emitter
+ GNDA GNDA sky130_fd_pr__rf_pnp_05v5_W3p40L3p40 m=1
X0 1st_Vout_2 cap_res2 sky130_fd_pr__cap_mim_m3_1 l=2 w=2
X1 GNDA NFET_GATE_10uA V_CMFB_S2 GNDA sky130_fd_pr__nfet_01v8 ad=0.2 pd=1.4 as=0.2 ps=1.4 w=1 l=0.15
X2 V_mir2 V_mir2 VDDA VDDA sky130_fd_pr__pfet_01v8 ad=0.2 pd=1.4 as=0.2 ps=1.4 w=1 l=0.2
X3 VB2_CUR_BIAS NFET_GATE_10uA GNDA GNDA sky130_fd_pr__nfet_01v8 ad=0.2 pd=1.4 as=0.2 ps=1.4 w=1 l=0.15
X4 a_38570_n6504# a_38690_n7778# GNDA sky130_fd_pr__res_xhigh_po_0p35 l=4.33
X5 GNDA GNDA V_CMFB_S2 GNDA sky130_fd_pr__nfet_01v8 ad=0.4 pd=2.8 as=0.2 ps=1.4 w=1 l=0.15
X6 1st_Vout_1 cap_res1 sky130_fd_pr__cap_mim_m3_1 l=2 w=2
X7 GNDA NFET_GATE_10uA V_CMFB_S4 GNDA sky130_fd_pr__nfet_01v8 ad=0.2 pd=1.4 as=0.2 ps=1.4 w=1 l=0.15
X8 V_p_1 Vin+ 1st_Vout_1 GNDA sky130_fd_pr__nfet_01v8 ad=0.1 pd=0.9 as=0.1 ps=0.9 w=0.5 l=0.2
X9 VB2_CUR_BIAS NFET_GATE_10uA GNDA GNDA sky130_fd_pr__nfet_01v8 ad=0.2 pd=1.4 as=0.2 ps=1.4 w=1 l=0.15
X10 V_p_2 ERR_AMP_REF V_mir2 GNDA sky130_fd_pr__nfet_01v8 ad=0.1 pd=0.9 as=0.1 ps=0.9 w=0.5 l=0.2
X11 1st_Vout_1 cap_res1 sky130_fd_pr__cap_mim_m3_1 l=2 w=2
X12 GNDA START_UP_NFET1 START_UP_NFET1 GNDA sky130_fd_pr__nfet_01v8 ad=0.4 pd=2.8 as=0.2 ps=1.4 w=1 l=10
X13 VDDA VDDA V_CMFB_S1 VDDA sky130_fd_pr__pfet_01v8 ad=0.4 pd=2.8 as=0.2 ps=1.4 w=1 l=0.15
X14 V_TOP START_UP Vin- VDDA sky130_fd_pr__pfet_01v8 ad=0.2 pd=1.4 as=0.2 ps=1.4 w=1 l=0.15
X15 V_CMFB_S3 VDDA VDDA VDDA sky130_fd_pr__pfet_01v8 ad=0.2 pd=1.4 as=0.4 ps=2.8 w=1 l=0.15
X16 GNDA NFET_GATE_10uA VB3_CUR_BIAS GNDA sky130_fd_pr__nfet_01v8 ad=0.2 pd=1.4 as=0.2 ps=1.4 w=1 l=0.15
X17 VB3_CUR_BIAS NFET_GATE_10uA GNDA GNDA sky130_fd_pr__nfet_01v8 ad=0.2 pd=1.4 as=0.2 ps=1.4 w=1 l=0.15
X18 NFET_GATE_10uA GNDA GNDA GNDA sky130_fd_pr__nfet_01v8 ad=0.2 pd=1.4 as=0.4 ps=2.8 w=1 l=0.15
X19 1st_Vout_1 cap_res1 sky130_fd_pr__cap_mim_m3_1 l=2 w=2
X20 GNDA NFET_GATE_10uA NFET_GATE_10uA GNDA sky130_fd_pr__nfet_01v8 ad=0.2 pd=1.4 as=0.2 ps=1.4 w=1 l=0.15
X21 1st_Vout_2 V_mir2 VDDA VDDA sky130_fd_pr__pfet_01v8 ad=0.2 pd=1.4 as=0.2 ps=1.4 w=1 l=0.2
X22 V_p_1 Vin- V_mir1 GNDA sky130_fd_pr__nfet_01v8 ad=0.1 pd=0.9 as=0.1 ps=0.9 w=0.5 l=0.2
X23 V_p_2 VDDA GNDA GNDA sky130_fd_pr__nfet_01v8 ad=1 pd=5.8 as=1 ps=5.8 w=2.5 l=5
X24 1st_Vout_2 cap_res2 sky130_fd_pr__cap_mim_m3_1 l=2 w=2
X25 V_CUR_REF_REG a_32320_n7778# GNDA sky130_fd_pr__res_xhigh_po_0p35 l=4
X26 VB2_CUR_BIAS GNDA GNDA GNDA sky130_fd_pr__nfet_01v8 ad=0.2 pd=1.4 as=0.4 ps=2.8 w=1 l=0.15
X27 1st_Vout_2 cap_res2 sky130_fd_pr__cap_mim_m3_1 l=2 w=2
X28 1st_Vout_2 cap_res2 sky130_fd_pr__cap_mim_m3_1 l=2 w=2
X29 VDDA V_TOP ERR_AMP_REF VDDA sky130_fd_pr__pfet_01v8 ad=0.6 pd=3.4 as=0.6 ps=3.4 w=3 l=0.5
X30 1st_Vout_2 cap_res2 sky130_fd_pr__cap_mim_m3_1 l=2 w=2
X31 VDDA PFET_GATE_10uA V_CMFB_S1 VDDA sky130_fd_pr__pfet_01v8 ad=0.2 pd=1.4 as=0.2 ps=1.4 w=1 l=0.15
X32 1st_Vout_2 cap_res2 sky130_fd_pr__cap_mim_m3_1 l=2 w=2
X33 VB2_CUR_BIAS NFET_GATE_10uA GNDA GNDA sky130_fd_pr__nfet_01v8 ad=0.2 pd=1.4 as=0.2 ps=1.4 w=1 l=0.15
X34 1st_Vout_1 cap_res1 sky130_fd_pr__cap_mim_m3_1 l=2 w=2
X35 VDDA PFET_GATE_10uA VB1_CUR_BIAS VDDA sky130_fd_pr__pfet_01v8 ad=0.2 pd=1.4 as=0.2 ps=1.4 w=1 l=0.15
X36 VDDA VDDA VB1_CUR_BIAS VDDA sky130_fd_pr__pfet_01v8 ad=0.4 pd=2.8 as=0.2 ps=1.4 w=1 l=0.15
X37 1st_Vout_2 cap_res2 sky130_fd_pr__cap_mim_m3_1 l=2 w=2
X38 1st_Vout_2 cap_res2 sky130_fd_pr__cap_mim_m3_1 l=2 w=2
X39 1st_Vout_1 cap_res1 sky130_fd_pr__cap_mim_m3_1 l=2 w=2
X40 VDDA V_mir1 V_mir1 VDDA sky130_fd_pr__pfet_01v8 ad=0.2 pd=1.4 as=0.2 ps=1.4 w=1 l=0.2
X41 Vin+ V_TOP VDDA VDDA sky130_fd_pr__pfet_01v8 ad=0.6 pd=3.4 as=0.6 ps=3.4 w=3 l=0.5
X42 1st_Vout_1 cap_res1 sky130_fd_pr__cap_mim_m3_1 l=2 w=2
X43 V_TOP VDDA sky130_fd_pr__cap_mim_m3_1 l=2 w=2
X44 V_mir1 Vin- V_p_1 GNDA sky130_fd_pr__nfet_01v8 ad=0.1 pd=0.9 as=0.1 ps=0.9 w=0.5 l=0.2
X45 1st_Vout_1 cap_res1 sky130_fd_pr__cap_mim_m3_1 l=2 w=2
X46 1st_Vout_1 cap_res1 sky130_fd_pr__cap_mim_m3_1 l=2 w=2
X47 TAIL_CUR_MIR_BIAS PFET_GATE_10uA VDDA VDDA sky130_fd_pr__pfet_01v8 ad=0.2 pd=1.4 as=0.2 ps=1.4 w=1 l=0.15
X48 VDDA V_mir2 V_mir2 VDDA sky130_fd_pr__pfet_01v8 ad=0.2 pd=1.4 as=0.2 ps=1.4 w=1 l=0.2
X49 V_TOP VDDA sky130_fd_pr__cap_mim_m3_1 l=2 w=2
X50 ERR_AMP_REF VDDA VDDA VDDA sky130_fd_pr__pfet_01v8 ad=0.6 pd=3.4 as=1.2 ps=6.8 w=3 l=0.5
X51 V_mir1 Vin- V_p_1 GNDA sky130_fd_pr__nfet_01v8 ad=0.1 pd=0.9 as=0.1 ps=0.9 w=0.5 l=0.2
X52 1st_Vout_1 V_mir1 VDDA VDDA sky130_fd_pr__pfet_01v8 ad=0.2 pd=1.4 as=0.2 ps=1.4 w=1 l=0.2
X53 V_TOP VDDA sky130_fd_pr__cap_mim_m3_1 l=2 w=2
X54 1st_Vout_2 cap_res2 sky130_fd_pr__cap_mim_m3_1 l=2 w=2
X55 V_CMFB_S3 PFET_GATE_10uA VDDA VDDA sky130_fd_pr__pfet_01v8 ad=0.2 pd=1.4 as=0.2 ps=1.4 w=1 l=0.15
X56 VDDA V_TOP Vin+ VDDA sky130_fd_pr__pfet_01v8 ad=0.6 pd=3.4 as=0.6 ps=3.4 w=3 l=0.5
X57 V_TOP VDDA sky130_fd_pr__cap_mim_m3_1 l=2 w=2
X58 sky130_fd_pr__rf_pnp_05v5_W3p40L3p40_8/Emitter Vin+ GNDA sky130_fd_pr__res_xhigh_po_0p35 l=2.3
X59 VDDA PFET_GATE_10uA NFET_GATE_10uA VDDA sky130_fd_pr__pfet_01v8 ad=0.2 pd=1.4 as=0.2 ps=1.4 w=1 l=0.15
X60 PFET_GATE_10uA 1st_Vout_2 VDDA VDDA sky130_fd_pr__pfet_01v8 ad=0.2 pd=1.4 as=0.2 ps=1.4 w=1 l=0.2
X61 1st_Vout_1 Vin+ V_p_1 GNDA sky130_fd_pr__nfet_01v8 ad=0.1 pd=0.9 as=0.1 ps=0.9 w=0.5 l=0.2
X62 VDDA V_mir2 1st_Vout_2 VDDA sky130_fd_pr__pfet_01v8 ad=0.2 pd=1.4 as=0.2 ps=1.4 w=1 l=0.2
X63 GNDA GNDA VB3_CUR_BIAS GNDA sky130_fd_pr__nfet_01v8 ad=0.4 pd=2.8 as=0.2 ps=1.4 w=1 l=0.15
X64 TAIL_CUR_MIR_BIAS PFET_GATE_10uA VDDA VDDA sky130_fd_pr__pfet_01v8 ad=0.2 pd=1.4 as=0.2 ps=1.4 w=1 l=0.15
X65 VDDA 1st_Vout_2 PFET_GATE_10uA VDDA sky130_fd_pr__pfet_01v8 ad=0.2 pd=1.4 as=0.2 ps=1.4 w=1 l=0.2
X66 V_p_1 Vin+ 1st_Vout_1 GNDA sky130_fd_pr__nfet_01v8 ad=0.1 pd=0.9 as=0.2 ps=1.8 w=0.5 l=0.2
X67 V_CMFB_S3 PFET_GATE_10uA VDDA VDDA sky130_fd_pr__pfet_01v8 ad=0.2 pd=1.4 as=0.2 ps=1.4 w=1 l=0.15
X68 VDDA VDDA V_TOP VDDA sky130_fd_pr__pfet_01v8 ad=0.4 pd=2.8 as=0.2 ps=1.4 w=1 l=0.2
X69 V_CMFB_S2 NFET_GATE_10uA GNDA GNDA sky130_fd_pr__nfet_01v8 ad=0.2 pd=1.4 as=0.2 ps=1.4 w=1 l=0.15
X70 V_CMFB_S2 NFET_GATE_10uA GNDA GNDA sky130_fd_pr__nfet_01v8 ad=0.2 pd=1.4 as=0.2 ps=1.4 w=1 l=0.15
X71 V_CMFB_S1 PFET_GATE_10uA VDDA VDDA sky130_fd_pr__pfet_01v8 ad=0.2 pd=1.4 as=0.2 ps=1.4 w=1 l=0.15
X72 Vin+ a_38040_n7928# GNDA sky130_fd_pr__res_xhigh_po_0p35 l=6
X73 1st_Vout_1 V_mir1 VDDA VDDA sky130_fd_pr__pfet_01v8 ad=0.2 pd=1.4 as=0.2 ps=1.4 w=1 l=0.2
X74 TAIL_CUR_MIR_BIAS PFET_GATE_10uA VDDA VDDA sky130_fd_pr__pfet_01v8 ad=0.2 pd=1.4 as=0.2 ps=1.4 w=1 l=0.15
X75 V_mir1 V_mir1 VDDA VDDA sky130_fd_pr__pfet_01v8 ad=0.2 pd=1.4 as=0.2 ps=1.4 w=1 l=0.2
X76 V_TOP VDDA sky130_fd_pr__cap_mim_m3_1 l=2 w=2
X77 GNDA VDDA PFET_GATE_10uA GNDA sky130_fd_pr__nfet_01v8 ad=1 pd=5.8 as=1 ps=5.8 w=2.5 l=5
X78 VDDA 1st_Vout_1 V_TOP VDDA sky130_fd_pr__pfet_01v8 ad=0.2 pd=1.4 as=0.2 ps=1.4 w=1 l=0.2
X79 PFET_GATE_10uA 1st_Vout_2 VDDA VDDA sky130_fd_pr__pfet_01v8 ad=0.2 pd=1.4 as=0.2 ps=1.4 w=1 l=0.2
X80 V_p_2 ERR_AMP_REF V_mir2 GNDA sky130_fd_pr__nfet_01v8 ad=0.1 pd=0.9 as=0.2 ps=1.8 w=0.5 l=0.2
X81 V_TOP VDDA GNDA GNDA sky130_fd_pr__nfet_01v8 ad=1 pd=5.8 as=1.01 ps=6.15 w=2.5 l=5
X82 V_TOP VDDA sky130_fd_pr__cap_mim_m3_1 l=2 w=2
X83 VB3_CUR_BIAS NFET_GATE_10uA GNDA GNDA sky130_fd_pr__nfet_01v8 ad=0.2 pd=1.4 as=0.2 ps=1.4 w=1 l=0.15
X84 GNDA NFET_GATE_10uA ERR_AMP_CUR_BIAS GNDA sky130_fd_pr__nfet_01v8 ad=0.2 pd=1.4 as=0.2 ps=1.4 w=1 l=0.15
X85 VDDA V_mir1 1st_Vout_1 VDDA sky130_fd_pr__pfet_01v8 ad=0.2 pd=1.4 as=0.2 ps=1.4 w=1 l=0.2
X86 V_p_1 Vin+ 1st_Vout_1 GNDA sky130_fd_pr__nfet_01v8 ad=0.1 pd=0.9 as=0.1 ps=0.9 w=0.5 l=0.2
X87 1st_Vout_2 cap_res2 sky130_fd_pr__cap_mim_m3_1 l=2 w=2
X88 1st_Vout_2 cap_res2 sky130_fd_pr__cap_mim_m3_1 l=2 w=2
X89 V_CMFB_S1 VDDA VDDA VDDA sky130_fd_pr__pfet_01v8 ad=0.2 pd=1.4 as=0.4 ps=2.8 w=1 l=0.15
X90 VDDA V_mir2 1st_Vout_2 VDDA sky130_fd_pr__pfet_01v8 ad=0.2 pd=1.4 as=0.2 ps=1.4 w=1 l=0.2
X91 1st_Vout_2 cap_res2 sky130_fd_pr__cap_mim_m3_1 l=2 w=2
X92 VDDA 1st_Vout_2 PFET_GATE_10uA VDDA sky130_fd_pr__pfet_01v8 ad=0.2 pd=1.4 as=0.2 ps=1.4 w=1 l=0.2
X93 V_p_2 V_CUR_REF_REG 1st_Vout_2 GNDA sky130_fd_pr__nfet_01v8 ad=0.1 pd=0.9 as=0.1 ps=0.9 w=0.5 l=0.2
X94 1st_Vout_1 cap_res1 sky130_fd_pr__cap_mim_m3_1 l=2 w=2
X95 NFET_GATE_10uA VDDA VDDA VDDA sky130_fd_pr__pfet_01v8 ad=0.2 pd=1.4 as=0.4 ps=2.8 w=1 l=0.15
X96 TAIL_CUR_MIR_BIAS PFET_GATE_10uA VDDA VDDA sky130_fd_pr__pfet_01v8 ad=0.2 pd=1.4 as=0.2 ps=1.4 w=1 l=0.15
X97 V_TOP VDDA VDDA VDDA sky130_fd_pr__pfet_01v8 ad=0.2 pd=1.4 as=0.4 ps=2.8 w=1 l=0.2
X98 1st_Vout_2 cap_res2 sky130_fd_pr__cap_mim_m3_1 l=2 w=2
X99 V_CUR_REF_REG PFET_GATE_10uA VDDA VDDA sky130_fd_pr__pfet_01v8 ad=0.2 pd=1.4 as=0.2 ps=1.4 w=1 l=0.15
X100 1st_Vout_1 cap_res1 sky130_fd_pr__cap_mim_m3_1 l=2 w=2
X101 V_TOP VDDA sky130_fd_pr__cap_mim_m3_1 l=2 w=2
X102 V_CMFB_S4 NFET_GATE_10uA GNDA GNDA sky130_fd_pr__nfet_01v8 ad=0.2 pd=1.4 as=0.2 ps=1.4 w=1 l=0.15
X103 V_mir2 V_mir2 VDDA VDDA sky130_fd_pr__pfet_01v8 ad=0.2 pd=1.4 as=0.2 ps=1.4 w=1 l=0.2
X104 1st_Vout_1 cap_res1 sky130_fd_pr__cap_mim_m3_1 l=2 w=2
X105 GNDA NFET_GATE_10uA V_CMFB_S4 GNDA sky130_fd_pr__nfet_01v8 ad=0.2 pd=1.4 as=0.2 ps=1.4 w=1 l=0.15
X106 1st_Vout_2 V_mir2 VDDA VDDA sky130_fd_pr__pfet_01v8 ad=0.2 pd=1.4 as=0.2 ps=1.4 w=1 l=0.2
X107 1st_Vout_1 cap_res1 sky130_fd_pr__cap_mim_m3_1 l=2 w=2
X108 V_TOP VDDA sky130_fd_pr__cap_mim_m3_1 l=2 w=2
X109 1st_Vout_2 cap_res2 sky130_fd_pr__cap_mim_m3_1 l=2 w=2
X110 Vin- a_32970_n7928# GNDA sky130_fd_pr__res_xhigh_po_0p35 l=6
X111 VDDA VDDA V_TOP VDDA sky130_fd_pr__pfet_01v8 ad=0.45 pd=2.9 as=0.2 ps=1.4 w=1 l=0.15
X112 VDDA V_TOP Vin- VDDA sky130_fd_pr__pfet_01v8 ad=0.6 pd=3.4 as=0.6 ps=3.4 w=3 l=0.5
X113 V_TOP VDDA sky130_fd_pr__cap_mim_m3_1 l=2 w=2
X114 a_32440_n6570# a_32320_n7778# GNDA sky130_fd_pr__res_xhigh_po_0p35 l=4
X115 ERR_AMP_REF V_TOP VDDA VDDA sky130_fd_pr__pfet_01v8 ad=0.6 pd=3.4 as=0.6 ps=3.4 w=3 l=0.5
X116 VDDA V_mir1 1st_Vout_1 VDDA sky130_fd_pr__pfet_01v8 ad=0.2 pd=1.4 as=0.2 ps=1.4 w=1 l=0.2
X117 1st_Vout_2 V_CUR_REF_REG V_p_2 GNDA sky130_fd_pr__nfet_01v8 ad=0.1 pd=0.9 as=0.1 ps=0.9 w=0.5 l=0.2
X118 VDDA V_mir1 V_mir1 VDDA sky130_fd_pr__pfet_01v8 ad=0.2 pd=1.4 as=0.2 ps=1.4 w=1 l=0.2
X119 Vin+ V_TOP VDDA VDDA sky130_fd_pr__pfet_01v8 ad=0.6 pd=3.4 as=0.6 ps=3.4 w=3 l=0.5
X120 V_mir1 Vin- V_p_1 GNDA sky130_fd_pr__nfet_01v8 ad=0.2 pd=1.8 as=0.1 ps=0.9 w=0.5 l=0.2
X121 V_TOP VDDA sky130_fd_pr__cap_mim_m3_1 l=2 w=2
X122 a_38570_n6504# GNDA GNDA sky130_fd_pr__res_xhigh_po_0p35 l=4.33
X123 a_33090_n6320# GNDA GNDA sky130_fd_pr__res_xhigh_po_0p35 l=6
X124 V_mir1 V_mir1 VDDA VDDA sky130_fd_pr__pfet_01v8 ad=0.2 pd=1.4 as=0.2 ps=1.4 w=1 l=0.2
X125 VDDA VDDA PFET_GATE_10uA VDDA sky130_fd_pr__pfet_01v8 ad=0.4 pd=2.8 as=0.2 ps=1.4 w=1 l=0.2
X126 GNDA VDDA V_p_1 GNDA sky130_fd_pr__nfet_01v8 ad=1.01 pd=6.15 as=1 ps=5.8 w=2.5 l=5
X127 V_CMFB_S1 PFET_GATE_10uA VDDA VDDA sky130_fd_pr__pfet_01v8 ad=0.2 pd=1.4 as=0.2 ps=1.4 w=1 l=0.15
X128 Vin- START_UP V_TOP VDDA sky130_fd_pr__pfet_01v8 ad=0.2 pd=1.4 as=0.2 ps=1.4 w=1 l=0.15
X129 V_TOP 1st_Vout_1 VDDA VDDA sky130_fd_pr__pfet_01v8 ad=0.2 pd=1.4 as=0.2 ps=1.4 w=1 l=0.2
X130 V_mir2 ERR_AMP_REF V_p_2 GNDA sky130_fd_pr__nfet_01v8 ad=0.1 pd=0.9 as=0.1 ps=0.9 w=0.5 l=0.2
X131 Vin- V_TOP VDDA VDDA sky130_fd_pr__pfet_01v8 ad=0.6 pd=3.4 as=0.6 ps=3.4 w=3 l=0.5
X132 a_37920_n6320# GNDA GNDA sky130_fd_pr__res_xhigh_po_0p35 l=6
X133 V_mir2 V_mir2 VDDA VDDA sky130_fd_pr__pfet_01v8 ad=0.2 pd=1.4 as=0.2 ps=1.4 w=1 l=0.2
X134 PFET_GATE_10uA cap_res2 GNDA sky130_fd_pr__res_high_po_0p35 l=2.05
X135 VDDA V_TOP START_UP VDDA sky130_fd_pr__pfet_01v8 ad=0.6 pd=3.4 as=0.6 ps=3.4 w=3 l=0.5
X136 1st_Vout_2 V_mir2 VDDA VDDA sky130_fd_pr__pfet_01v8 ad=0.2 pd=1.4 as=0.2 ps=1.4 w=1 l=0.2
X137 V_TOP VDDA sky130_fd_pr__cap_mim_m3_1 l=2 w=2
X138 VDDA 1st_Vout_2 PFET_GATE_10uA VDDA sky130_fd_pr__pfet_01v8 ad=0.2 pd=1.4 as=0.2 ps=1.4 w=1 l=0.2
X139 V_TOP cap_res1 GNDA sky130_fd_pr__res_high_po_0p35 l=2.05
X140 V_TOP VDDA sky130_fd_pr__cap_mim_m3_1 l=2 w=2
X141 VDDA V_TOP ERR_AMP_REF VDDA sky130_fd_pr__pfet_01v8 ad=0.6 pd=3.4 as=0.6 ps=3.4 w=3 l=0.5
X142 VDDA V_mir2 V_mir2 VDDA sky130_fd_pr__pfet_01v8 ad=0.2 pd=1.4 as=0.2 ps=1.4 w=1 l=0.2
X143 VDDA PFET_GATE_10uA TAIL_CUR_MIR_BIAS VDDA sky130_fd_pr__pfet_01v8 ad=0.2 pd=1.4 as=0.2 ps=1.4 w=1 l=0.15
X144 V_TOP VDDA sky130_fd_pr__cap_mim_m3_1 l=2 w=2
X145 1st_Vout_2 cap_res2 sky130_fd_pr__cap_mim_m3_1 l=2 w=2
X146 GNDA NFET_GATE_10uA VB2_CUR_BIAS GNDA sky130_fd_pr__nfet_01v8 ad=0.2 pd=1.4 as=0.2 ps=1.4 w=1 l=0.15
X147 V_TOP VDDA sky130_fd_pr__cap_mim_m3_1 l=2 w=2
X148 VDDA V_TOP START_UP VDDA sky130_fd_pr__pfet_01v8 ad=0.6 pd=3.4 as=0.6 ps=3.4 w=3 l=0.5
X149 VB1_CUR_BIAS VDDA VDDA VDDA sky130_fd_pr__pfet_01v8 ad=0.2 pd=1.4 as=0.4 ps=2.8 w=1 l=0.15
X150 VB1_CUR_BIAS PFET_GATE_10uA VDDA VDDA sky130_fd_pr__pfet_01v8 ad=0.2 pd=1.4 as=0.2 ps=1.4 w=1 l=0.15
X151 GNDA GNDA VB2_CUR_BIAS GNDA sky130_fd_pr__nfet_01v8 ad=0.4 pd=2.8 as=0.2 ps=1.4 w=1 l=0.15
X152 VDDA VDDA V_CMFB_S3 VDDA sky130_fd_pr__pfet_01v8 ad=0.4 pd=2.8 as=0.2 ps=1.4 w=1 l=0.15
X153 START_UP_NFET1 START_UP START_UP GNDA sky130_fd_pr__nfet_01v8 ad=0.2 pd=1.4 as=0.4 ps=2.8 w=1 l=10
X154 1st_Vout_1 cap_res1 sky130_fd_pr__cap_mim_m3_1 l=2 w=2
X155 PFET_GATE_10uA VDDA VDDA VDDA sky130_fd_pr__pfet_01v8 ad=0.2 pd=1.4 as=0.4 ps=2.8 w=1 l=0.2
X156 1st_Vout_2 cap_res2 sky130_fd_pr__cap_mim_m3_1 l=2 w=2
X157 V_p_1 Vin- V_mir1 GNDA sky130_fd_pr__nfet_01v8 ad=0.1 pd=0.9 as=0.1 ps=0.9 w=0.5 l=0.2
X158 V_p_2 V_CUR_REF_REG 1st_Vout_2 GNDA sky130_fd_pr__nfet_01v8 ad=0.1 pd=0.9 as=0.1 ps=0.9 w=0.5 l=0.2
X159 START_UP V_TOP VDDA VDDA sky130_fd_pr__pfet_01v8 ad=0.6 pd=3.4 as=0.6 ps=3.4 w=3 l=0.5
X160 1st_Vout_1 cap_res1 sky130_fd_pr__cap_mim_m3_1 l=2 w=2
X161 V_TOP VDDA sky130_fd_pr__cap_mim_m3_1 l=2 w=2
X162 VB3_CUR_BIAS NFET_GATE_10uA GNDA GNDA sky130_fd_pr__nfet_01v8 ad=0.2 pd=1.4 as=0.2 ps=1.4 w=1 l=0.15
X163 1st_Vout_1 cap_res1 sky130_fd_pr__cap_mim_m3_1 l=2 w=2
X164 GNDA NFET_GATE_10uA VB3_CUR_BIAS GNDA sky130_fd_pr__nfet_01v8 ad=0.2 pd=1.4 as=0.2 ps=1.4 w=1 l=0.15
X165 ERR_AMP_CUR_BIAS NFET_GATE_10uA GNDA GNDA sky130_fd_pr__nfet_01v8 ad=0.2 pd=1.4 as=0.2 ps=1.4 w=1 l=0.15
X166 VDDA PFET_GATE_10uA TAIL_CUR_MIR_BIAS VDDA sky130_fd_pr__pfet_01v8 ad=0.2 pd=1.4 as=0.2 ps=1.4 w=1 l=0.15
X167 ERR_AMP_REF V_TOP VDDA VDDA sky130_fd_pr__pfet_01v8 ad=0.6 pd=3.4 as=0.6 ps=3.4 w=3 l=0.5
X168 V_TOP 1st_Vout_1 VDDA VDDA sky130_fd_pr__pfet_01v8 ad=0.2 pd=1.4 as=0.2 ps=1.4 w=1 l=0.2
X169 V_p_2 ERR_AMP_REF V_mir2 GNDA sky130_fd_pr__nfet_01v8 ad=0.1 pd=0.9 as=0.1 ps=0.9 w=0.5 l=0.2
X170 1st_Vout_1 cap_res1 sky130_fd_pr__cap_mim_m3_1 l=2 w=2
X171 1st_Vout_1 V_mir1 VDDA VDDA sky130_fd_pr__pfet_01v8 ad=0.2 pd=1.4 as=0.2 ps=1.4 w=1 l=0.2
X172 ERR_AMP_REF a_38690_n7778# GNDA sky130_fd_pr__res_xhigh_po_0p35 l=4.33
X173 START_UP V_TOP VDDA VDDA sky130_fd_pr__pfet_01v8 ad=0.6 pd=3.4 as=0.6 ps=3.4 w=3 l=0.5
X174 VDDA V_mir1 V_mir1 VDDA sky130_fd_pr__pfet_01v8 ad=0.2 pd=1.4 as=0.2 ps=1.4 w=1 l=0.2
X175 GNDA NFET_GATE_10uA VB2_CUR_BIAS GNDA sky130_fd_pr__nfet_01v8 ad=0.2 pd=1.4 as=0.2 ps=1.4 w=1 l=0.15
X176 VDDA PFET_GATE_10uA V_CMFB_S3 VDDA sky130_fd_pr__pfet_01v8 ad=0.2 pd=1.4 as=0.2 ps=1.4 w=1 l=0.15
X177 VDDA 1st_Vout_1 V_TOP VDDA sky130_fd_pr__pfet_01v8 ad=0.2 pd=1.4 as=0.2 ps=1.4 w=1 l=0.2
X178 V_TOP VDDA VDDA VDDA sky130_fd_pr__pfet_01v8 ad=0.2 pd=1.4 as=0.4 ps=2.8 w=1 l=0.15
X179 VDDA V_mir2 V_mir2 VDDA sky130_fd_pr__pfet_01v8 ad=0.2 pd=1.4 as=0.2 ps=1.4 w=1 l=0.2
X180 GNDA NFET_GATE_10uA VB2_CUR_BIAS GNDA sky130_fd_pr__nfet_01v8 ad=0.2 pd=1.4 as=0.2 ps=1.4 w=1 l=0.15
X181 V_CMFB_S4 GNDA GNDA GNDA sky130_fd_pr__nfet_01v8 ad=0.2 pd=1.4 as=0.4 ps=2.8 w=1 l=0.15
X182 VDDA V_TOP Vin- VDDA sky130_fd_pr__pfet_01v8 ad=0.6 pd=3.4 as=0.6 ps=3.4 w=3 l=0.5
X183 1st_Vout_1 cap_res1 sky130_fd_pr__cap_mim_m3_1 l=2 w=2
X184 VDDA V_mir2 1st_Vout_2 VDDA sky130_fd_pr__pfet_01v8 ad=0.2 pd=1.4 as=0.2 ps=1.4 w=1 l=0.2
X185 a_33090_n6320# a_32970_n7928# GNDA sky130_fd_pr__res_xhigh_po_0p35 l=6
X186 VDDA PFET_GATE_10uA TAIL_CUR_MIR_BIAS VDDA sky130_fd_pr__pfet_01v8 ad=0.2 pd=1.4 as=0.2 ps=1.4 w=1 l=0.15
X187 VDDA V_TOP Vin+ VDDA sky130_fd_pr__pfet_01v8 ad=0.6 pd=3.4 as=0.6 ps=3.4 w=3 l=0.5
X188 PFET_GATE_10uA 1st_Vout_2 VDDA VDDA sky130_fd_pr__pfet_01v8 ad=0.2 pd=1.4 as=0.2 ps=1.4 w=1 l=0.2
X189 1st_Vout_2 cap_res2 sky130_fd_pr__cap_mim_m3_1 l=2 w=2
X190 V_TOP VDDA sky130_fd_pr__cap_mim_m3_1 l=2 w=2
X191 VDDA PFET_GATE_10uA V_CMFB_S3 VDDA sky130_fd_pr__pfet_01v8 ad=0.2 pd=1.4 as=0.2 ps=1.4 w=1 l=0.15
X192 1st_Vout_2 cap_res2 sky130_fd_pr__cap_mim_m3_1 l=2 w=2
X193 1st_Vout_1 Vin+ V_p_1 GNDA sky130_fd_pr__nfet_01v8 ad=0.1 pd=0.9 as=0.1 ps=0.9 w=0.5 l=0.2
X194 V_mir2 ERR_AMP_REF V_p_2 GNDA sky130_fd_pr__nfet_01v8 ad=0.1 pd=0.9 as=0.1 ps=0.9 w=0.5 l=0.2
X195 VDDA PFET_GATE_10uA V_CMFB_S1 VDDA sky130_fd_pr__pfet_01v8 ad=0.2 pd=1.4 as=0.2 ps=1.4 w=1 l=0.15
X196 V_TOP 1st_Vout_1 VDDA VDDA sky130_fd_pr__pfet_01v8 ad=0.2 pd=1.4 as=0.2 ps=1.4 w=1 l=0.2
X197 1st_Vout_2 cap_res2 sky130_fd_pr__cap_mim_m3_1 l=2 w=2
X198 Vin- V_TOP VDDA VDDA sky130_fd_pr__pfet_01v8 ad=0.6 pd=3.4 as=0.6 ps=3.4 w=3 l=0.5
X199 1st_Vout_1 cap_res1 sky130_fd_pr__cap_mim_m3_1 l=2 w=2
X200 VDDA PFET_GATE_10uA TAIL_CUR_MIR_BIAS VDDA sky130_fd_pr__pfet_01v8 ad=0.2 pd=1.4 as=0.2 ps=1.4 w=1 l=0.15
X201 VDDA VDDA V_CUR_REF_REG VDDA sky130_fd_pr__pfet_01v8 ad=0.4 pd=2.8 as=0.2 ps=1.4 w=1 l=0.15
X202 1st_Vout_2 V_CUR_REF_REG V_p_2 GNDA sky130_fd_pr__nfet_01v8 ad=0.2 pd=1.8 as=0.1 ps=0.9 w=0.5 l=0.2
X203 1st_Vout_1 cap_res1 sky130_fd_pr__cap_mim_m3_1 l=2 w=2
X204 1st_Vout_1 cap_res1 sky130_fd_pr__cap_mim_m3_1 l=2 w=2
X205 a_37920_n6320# a_38040_n7928# GNDA sky130_fd_pr__res_xhigh_po_0p35 l=6
X206 VDDA 1st_Vout_1 V_TOP VDDA sky130_fd_pr__pfet_01v8 ad=0.2 pd=1.4 as=0.2 ps=1.4 w=1 l=0.2
X207 V_TOP VDDA sky130_fd_pr__cap_mim_m3_1 l=2 w=2
X208 1st_Vout_2 V_CUR_REF_REG V_p_2 GNDA sky130_fd_pr__nfet_01v8 ad=0.1 pd=0.9 as=0.1 ps=0.9 w=0.5 l=0.2
X209 VDDA VDDA ERR_AMP_REF VDDA sky130_fd_pr__pfet_01v8 ad=1.2 pd=6.8 as=0.6 ps=3.4 w=3 l=0.5
X210 VDDA V_mir1 1st_Vout_1 VDDA sky130_fd_pr__pfet_01v8 ad=0.2 pd=1.4 as=0.2 ps=1.4 w=1 l=0.2
X211 V_TOP VDDA sky130_fd_pr__cap_mim_m3_1 l=2 w=2
X212 V_TOP VDDA sky130_fd_pr__cap_mim_m3_1 l=2 w=2
X213 1st_Vout_2 cap_res2 sky130_fd_pr__cap_mim_m3_1 l=2 w=2
X214 a_32440_n6570# GNDA GNDA sky130_fd_pr__res_xhigh_po_0p35 l=4
X215 V_TOP VDDA sky130_fd_pr__cap_mim_m3_1 l=2 w=2
X216 V_mir1 V_mir1 VDDA VDDA sky130_fd_pr__pfet_01v8 ad=0.2 pd=1.4 as=0.2 ps=1.4 w=1 l=0.2
.ends

.subckt two_stage_opamp_dummy_magic_16 VDDA V_CMFB_S1 V_CMFB_S3 Vb3 Vb2 Vb1 V_CMFB_S2
+ V_CMFB_S4 VOUT- VOUT+ V_tail_gate V_err_amp_ref V_err_gate VIN+ VIN- GNDA
X0 VOUT- cap_res_X sky130_fd_pr__cap_mim_m3_1 l=2 w=2
X1 VD1 VIN- V_source GNDA sky130_fd_pr__nfet_01v8 ad=0.3 pd=1.9 as=0.3 ps=1.9 w=1.5 l=0.15
X2 VDDA Vb3 VD3 VDDA sky130_fd_pr__pfet_01v8 ad=0.7 pd=3.9 as=0.7 ps=3.9 w=3.5 l=0.2
X3 VD1 Vb1 X GNDA sky130_fd_pr__nfet_01v8 ad=0.3 pd=1.9 as=0.3 ps=1.9 w=1.5 l=0.15
X4 VDDA X V_CMFB_S2 GNDA sky130_fd_pr__nfet_01v8 ad=0.6 pd=3.4 as=0.6 ps=3.4 w=3 l=0.15
X5 VOUT- cap_res_X sky130_fd_pr__cap_mim_m3_1 l=2 w=2
X6 VOUT+ cap_res_Y sky130_fd_pr__cap_mim_m3_1 l=2 w=2
X7 VOUT- X VDDA VDDA sky130_fd_pr__pfet_01v8 ad=1.2 pd=6.4 as=1.2 ps=6.4 w=6 l=0.15
X8 VOUT+ cap_res_Y sky130_fd_pr__cap_mim_m3_1 l=2 w=2
X9 VD4 VD4 Y VD4 sky130_fd_pr__pfet_01v8 ad=1.4 pd=7.8 as=0.7 ps=3.9 w=3.5 l=0.2
X10 VOUT- cap_res_X sky130_fd_pr__cap_mim_m3_1 l=2 w=2
X11 VOUT+ cap_res_Y sky130_fd_pr__cap_mim_m3_1 l=2 w=2
X12 VOUT+ cap_res_Y sky130_fd_pr__cap_mim_m3_1 l=2 w=2
X13 VOUT- cap_res_X sky130_fd_pr__cap_mim_m3_1 l=2 w=2
X14 VDDA Vb3 VD4 VDDA sky130_fd_pr__pfet_01v8 ad=0.7 pd=3.9 as=0.7 ps=3.9 w=3.5 l=0.2
X15 VDDA VDDA GNDA VDDA sky130_fd_pr__pfet_01v8 ad=0.8 pd=4.8 as=0.4 ps=2.4 w=2 l=0.15
X16 VOUT+ cap_res_Y sky130_fd_pr__cap_mim_m3_1 l=2 w=2
X17 X Vb2 VD3 VD3 sky130_fd_pr__pfet_01v8 ad=0.7 pd=3.9 as=0.7 ps=3.9 w=3.5 l=0.2
X18 VOUT+ Y VDDA VDDA sky130_fd_pr__pfet_01v8 ad=1.2 pd=6.4 as=1.2 ps=6.4 w=6 l=0.15
X19 VDDA Vb3 VD3 VDDA sky130_fd_pr__pfet_01v8 ad=0.7 pd=3.9 as=0.7 ps=3.9 w=3.5 l=0.2
X20 VDDA Vb3 VD4 VDDA sky130_fd_pr__pfet_01v8 ad=0.7 pd=3.9 as=0.7 ps=3.9 w=3.5 l=0.2
X21 VDDA V_err_gate V_err_mir_p VDDA sky130_fd_pr__pfet_01v8 ad=0.5 pd=2.9 as=0.5 ps=2.9 w=2.5 l=0.15
X22 V_err_p V_tot err_amp_mir VDDA sky130_fd_pr__pfet_01v8 ad=0.5 pd=2.9 as=0.5 ps=2.9 w=2.5 l=0.15
X23 VD2 Vb1 Y GNDA sky130_fd_pr__nfet_01v8 ad=0.3 pd=1.9 as=0.3 ps=1.9 w=1.5 l=0.15
X24 VOUT- cap_res_X sky130_fd_pr__cap_mim_m3_1 l=2 w=2
X25 GNDA GNDA VOUT- GNDA sky130_fd_pr__nfet_01v8 ad=2.8 pd=14.8 as=1.4 ps=7.4 w=7 l=0.6
X26 VOUT- cap_res_X sky130_fd_pr__cap_mim_m3_1 l=2 w=2
X27 VOUT+ cap_res_Y sky130_fd_pr__cap_mim_m3_1 l=2 w=2
X28 VD4 Vb3 VDDA VDDA sky130_fd_pr__pfet_01v8 ad=0.7 pd=3.9 as=0.7 ps=3.9 w=3.5 l=0.2
X29 GNDA GNDA Y GNDA sky130_fd_pr__nfet_01v8 ad=0.6 pd=3.8 as=0.3 ps=1.9 w=1.5 l=0.15
X30 VOUT- cap_res_X sky130_fd_pr__cap_mim_m3_1 l=2 w=2
X31 VOUT- cap_res_X sky130_fd_pr__cap_mim_m3_1 l=2 w=2
X32 VDDA Vb3 VD3 VDDA sky130_fd_pr__pfet_01v8 ad=0.7 pd=3.9 as=0.7 ps=3.9 w=3.5 l=0.2
X33 VDDA VDDA VDDA VDDA sky130_fd_pr__pfet_01v8 ad=0.72 pd=4.4 as=68.76 ps=379 w=1.8 l=0.2
X34 VOUT+ cap_res_Y sky130_fd_pr__cap_mim_m3_1 l=2 w=2
X35 VOUT+ cap_res_Y sky130_fd_pr__cap_mim_m3_1 l=2 w=2
X36 GNDA Y V_CMFB_S3 VDDA sky130_fd_pr__pfet_01v8 ad=0.4 pd=2.4 as=0.4 ps=2.4 w=2 l=0.15
X37 X Vb2 VD3 VD3 sky130_fd_pr__pfet_01v8 ad=0.7 pd=3.9 as=0.7 ps=3.9 w=3.5 l=0.2
X38 VOUT- GNDA GNDA GNDA sky130_fd_pr__nfet_01v8 ad=1.4 pd=7.4 as=2.8 ps=14.8 w=7 l=0.6
X39 V_source V_tail_gate GNDA GNDA sky130_fd_pr__nfet_01v8 ad=0.5 pd=2.9 as=0.5 ps=2.9 w=2.5 l=0.15
X40 GNDA V_tail_gate V_p_mir GNDA sky130_fd_pr__nfet_01v8 ad=0.5 pd=2.9 as=0.5 ps=2.9 w=2.5 l=0.15
X41 VOUT- cap_res_X sky130_fd_pr__cap_mim_m3_1 l=2 w=2
X42 VD2 VIN+ V_source GNDA sky130_fd_pr__nfet_01v8 ad=0.3 pd=1.9 as=0.3 ps=1.9 w=1.5 l=0.15
X43 VOUT- cap_res_X sky130_fd_pr__cap_mim_m3_1 l=2 w=2
X44 VOUT+ cap_res_Y sky130_fd_pr__cap_mim_m3_1 l=2 w=2
X45 VDDA X V_CMFB_S2 GNDA sky130_fd_pr__nfet_01v8 ad=0.6 pd=3.4 as=0.6 ps=3.4 w=3 l=0.15
X46 VDDA VDDA VDDA VDDA sky130_fd_pr__pfet_01v8 ad=0.7 pd=3.9 as=0 ps=0 w=3.5 l=0.2
X47 VOUT+ cap_res_Y sky130_fd_pr__cap_mim_m3_1 l=2 w=2
X48 VOUT- cap_res_X sky130_fd_pr__cap_mim_m3_1 l=2 w=2
X49 V_b_2nd_stage a_n2420_n2210# GNDA sky130_fd_pr__res_xhigh_po_0p35 l=2.63
X50 VOUT- X VDDA VDDA sky130_fd_pr__pfet_01v8 ad=1.2 pd=6.4 as=1.2 ps=6.4 w=6 l=0.15
X51 VOUT+ cap_res_Y sky130_fd_pr__cap_mim_m3_1 l=2 w=2
X52 VOUT- cap_res_X sky130_fd_pr__cap_mim_m3_1 l=2 w=2
X53 VOUT- cap_res_X sky130_fd_pr__cap_mim_m3_1 l=2 w=2
X54 VOUT- cap_res_X sky130_fd_pr__cap_mim_m3_1 l=2 w=2
X55 VOUT+ cap_res_Y sky130_fd_pr__cap_mim_m3_1 l=2 w=2
X56 VOUT- cap_res_X sky130_fd_pr__cap_mim_m3_1 l=2 w=2
X57 VDDA VDDA VD3 VDDA sky130_fd_pr__pfet_01v8 ad=1.4 pd=7.8 as=0.7 ps=3.9 w=3.5 l=0.2
X58 a_n2700_594# V_CMFB_S3 GNDA sky130_fd_pr__res_xhigh_po_0p35 l=1.75
X59 V_source V_tail_gate GNDA GNDA sky130_fd_pr__nfet_01v8 ad=0.5 pd=2.9 as=0.5 ps=2.9 w=2.5 l=0.15
X60 V_source err_amp_out GNDA GNDA sky130_fd_pr__nfet_01v8 ad=0.5 pd=2.9 as=0.5 ps=2.9 w=2.5 l=0.15
X61 VD2 GNDA GNDA GNDA sky130_fd_pr__nfet_01v8 ad=0.3 pd=1.9 as=0.6 ps=3.8 w=1.5 l=0.15
X62 VOUT+ cap_res_Y sky130_fd_pr__cap_mim_m3_1 l=2 w=2
X63 VD1 Vb1 X GNDA sky130_fd_pr__nfet_01v8 ad=0.3 pd=1.9 as=0.3 ps=1.9 w=1.5 l=0.15
X64 Y Vb2 VD4 VD4 sky130_fd_pr__pfet_01v8 ad=0.7 pd=3.9 as=0.7 ps=3.9 w=3.5 l=0.2
X65 VDDA GNDA GNDA GNDA sky130_fd_pr__nfet_01v8 ad=0.6 pd=3.4 as=1.2 ps=6.8 w=3 l=0.15
X66 VOUT+ Y VDDA VDDA sky130_fd_pr__pfet_01v8 ad=1.2 pd=6.4 as=1.2 ps=6.4 w=6 l=0.15
X67 VOUT- cap_res_X sky130_fd_pr__cap_mim_m3_1 l=2 w=2
X68 err_amp_mir err_amp_mir GNDA GNDA sky130_fd_pr__nfet_01v8 ad=0.5 pd=2.9 as=0.5 ps=2.9 w=2.5 l=0.15
X69 VOUT- cap_res_X sky130_fd_pr__cap_mim_m3_1 l=2 w=2
X70 VOUT+ cap_res_Y sky130_fd_pr__cap_mim_m3_1 l=2 w=2
X71 VD3 Vb2 X VD3 sky130_fd_pr__pfet_01v8 ad=0.7 pd=3.9 as=0.7 ps=3.9 w=3.5 l=0.2
X72 VOUT- cap_res_X sky130_fd_pr__cap_mim_m3_1 l=2 w=2
X73 VOUT+ cap_res_Y sky130_fd_pr__cap_mim_m3_1 l=2 w=2
X74 VOUT- cap_res_X sky130_fd_pr__cap_mim_m3_1 l=2 w=2
X75 VOUT+ cap_res_Y sky130_fd_pr__cap_mim_m3_1 l=2 w=2
X76 VDDA VDDA Vb2_2 VDDA sky130_fd_pr__pfet_01v8 ad=0.72 pd=4.4 as=0.36 ps=2.2 w=1.8 l=0.2
X77 VOUT- cap_res_X sky130_fd_pr__cap_mim_m3_1 l=2 w=2
X78 VOUT+ cap_res_Y sky130_fd_pr__cap_mim_m3_1 l=2 w=2
X79 VOUT- cap_res_X sky130_fd_pr__cap_mim_m3_1 l=2 w=2
X80 VOUT- cap_res_X sky130_fd_pr__cap_mim_m3_1 l=2 w=2
X81 Vb2_Vb3 Vb2_Vb3 Vb2_Vb3 Vb2_Vb3 sky130_fd_pr__pfet_01v8 ad=1.4 pd=7.8 as=5.6 ps=31.2 w=3.5 l=0.2
X82 VOUT- cap_res_X sky130_fd_pr__cap_mim_m3_1 l=2 w=2
X83 VDDA Y VOUT+ VDDA sky130_fd_pr__pfet_01v8 ad=1.2 pd=6.4 as=1.2 ps=6.4 w=6 l=0.15
X84 VD3 Vb3 VDDA VDDA sky130_fd_pr__pfet_01v8 ad=0.7 pd=3.9 as=0.7 ps=3.9 w=3.5 l=0.2
X85 VD2 Vb1 Y GNDA sky130_fd_pr__nfet_01v8 ad=0.3 pd=1.9 as=0.3 ps=1.9 w=1.5 l=0.15
X86 VOUT+ cap_res_Y sky130_fd_pr__cap_mim_m3_1 l=2 w=2
X87 VOUT- cap_res_X sky130_fd_pr__cap_mim_m3_1 l=2 w=2
X88 VOUT+ cap_res_Y sky130_fd_pr__cap_mim_m3_1 l=2 w=2
X89 VOUT+ cap_res_Y sky130_fd_pr__cap_mim_m3_1 l=2 w=2
X90 VOUT- cap_res_X sky130_fd_pr__cap_mim_m3_1 l=2 w=2
X91 VD1 VIN- V_source GNDA sky130_fd_pr__nfet_01v8 ad=0.3 pd=1.9 as=0.3 ps=1.9 w=1.5 l=0.15
X92 GNDA X V_CMFB_S1 VDDA sky130_fd_pr__pfet_01v8 ad=0.4 pd=2.4 as=0.4 ps=2.4 w=2 l=0.15
X93 VOUT- cap_res_X sky130_fd_pr__cap_mim_m3_1 l=2 w=2
X94 GNDA GNDA VOUT+ GNDA sky130_fd_pr__nfet_01v8 ad=2.8 pd=14.8 as=1.4 ps=7.4 w=7 l=0.6
X95 VD2 Vb1 Y GNDA sky130_fd_pr__nfet_01v8 ad=0.3 pd=1.9 as=0.3 ps=1.9 w=1.5 l=0.15
X96 VDDA X V_CMFB_S2 GNDA sky130_fd_pr__nfet_01v8 ad=0.6 pd=3.4 as=0.6 ps=3.4 w=3 l=0.15
X97 VOUT+ cap_res_Y sky130_fd_pr__cap_mim_m3_1 l=2 w=2
X98 GNDA Y V_CMFB_S3 VDDA sky130_fd_pr__pfet_01v8 ad=0.4 pd=2.4 as=0.4 ps=2.4 w=2 l=0.15
X99 VDDA VDDA GNDA VDDA sky130_fd_pr__pfet_01v8 ad=0.8 pd=4.8 as=0.4 ps=2.4 w=2 l=0.15
X100 VD4 Vb3 VDDA VDDA sky130_fd_pr__pfet_01v8 ad=0.7 pd=3.9 as=0.7 ps=3.9 w=3.5 l=0.2
X101 Y GNDA GNDA GNDA sky130_fd_pr__nfet_01v8 ad=0.3 pd=1.9 as=0.6 ps=3.8 w=1.5 l=0.15
X102 VOUT+ cap_res_Y sky130_fd_pr__cap_mim_m3_1 l=2 w=2
X103 VD3 Vb2 X VD3 sky130_fd_pr__pfet_01v8 ad=0.7 pd=3.9 as=0.7 ps=3.9 w=3.5 l=0.2
X104 VD1 VIN- V_source GNDA sky130_fd_pr__nfet_01v8 ad=0.3 pd=1.9 as=0.3 ps=1.9 w=1.5 l=0.15
X105 VOUT+ cap_res_Y sky130_fd_pr__cap_mim_m3_1 l=2 w=2
X106 VDDA Y V_CMFB_S4 GNDA sky130_fd_pr__nfet_01v8 ad=0.6 pd=3.4 as=0.6 ps=3.4 w=3 l=0.15
X107 VD2 Vb1 Y GNDA sky130_fd_pr__nfet_01v8 ad=0.3 pd=1.9 as=0.3 ps=1.9 w=1.5 l=0.15
X108 VOUT- cap_res_X sky130_fd_pr__cap_mim_m3_1 l=2 w=2
X109 VOUT+ Y VDDA VDDA sky130_fd_pr__pfet_01v8 ad=1.2 pd=6.4 as=1.2 ps=6.4 w=6 l=0.15
X110 VOUT+ cap_res_Y sky130_fd_pr__cap_mim_m3_1 l=2 w=2
X111 VOUT+ cap_res_Y sky130_fd_pr__cap_mim_m3_1 l=2 w=2
X112 GNDA GNDA VD1 GNDA sky130_fd_pr__nfet_01v8 ad=0.6 pd=3.8 as=0.3 ps=1.9 w=1.5 l=0.15
X113 err_amp_out GNDA GNDA GNDA sky130_fd_pr__nfet_01v8 ad=0.5 pd=2.9 as=1 ps=5.8 w=2.5 l=0.15
X114 VOUT- cap_res_X sky130_fd_pr__cap_mim_m3_1 l=2 w=2
X115 VOUT+ cap_res_Y sky130_fd_pr__cap_mim_m3_1 l=2 w=2
X116 GNDA X V_CMFB_S1 VDDA sky130_fd_pr__pfet_01v8 ad=0.4 pd=2.4 as=0.4 ps=2.4 w=2 l=0.15
X117 GNDA Y V_CMFB_S3 VDDA sky130_fd_pr__pfet_01v8 ad=0.4 pd=2.4 as=0.4 ps=2.4 w=2 l=0.15
X118 VDDA VDDA err_amp_out VDDA sky130_fd_pr__pfet_01v8 ad=1 pd=5.8 as=0.5 ps=2.9 w=2.5 l=0.15
X119 GNDA V_tail_gate V_source GNDA sky130_fd_pr__nfet_01v8 ad=0.5 pd=2.9 as=0.5 ps=2.9 w=2.5 l=0.15
X120 V_source V_tail_gate GNDA GNDA sky130_fd_pr__nfet_01v8 ad=0.5 pd=2.9 as=0.5 ps=2.9 w=2.5 l=0.15
X121 VD1 Vb1 X GNDA sky130_fd_pr__nfet_01v8 ad=0.3 pd=1.9 as=0.3 ps=1.9 w=1.5 l=0.15
X122 VOUT- cap_res_X sky130_fd_pr__cap_mim_m3_1 l=2 w=2
X123 VOUT- cap_res_X sky130_fd_pr__cap_mim_m3_1 l=2 w=2
X124 V_source V_tail_gate GNDA GNDA sky130_fd_pr__nfet_01v8 ad=0.5 pd=2.9 as=0.5 ps=2.9 w=2.5 l=0.15
X125 VOUT+ cap_res_Y sky130_fd_pr__cap_mim_m3_1 l=2 w=2
X126 VD3 Vb3 VDDA VDDA sky130_fd_pr__pfet_01v8 ad=0.7 pd=3.9 as=0.7 ps=3.9 w=3.5 l=0.2
X127 VOUT+ Y VDDA VDDA sky130_fd_pr__pfet_01v8 ad=1.2 pd=6.4 as=1.2 ps=6.4 w=6 l=0.15
X128 VD3 VD3 X VD3 sky130_fd_pr__pfet_01v8 ad=1.4 pd=7.8 as=0.7 ps=3.9 w=3.5 l=0.2
X129 VOUT- V_b_2nd_stage GNDA GNDA sky130_fd_pr__nfet_01v8 ad=1.4 pd=7.4 as=1.4 ps=7.4 w=7 l=0.6
X130 VOUT- cap_res_X sky130_fd_pr__cap_mim_m3_1 l=2 w=2
X131 VOUT- cap_res_X sky130_fd_pr__cap_mim_m3_1 l=2 w=2
X132 VOUT- cap_res_X sky130_fd_pr__cap_mim_m3_1 l=2 w=2
X133 VOUT+ cap_res_Y sky130_fd_pr__cap_mim_m3_1 l=2 w=2
X134 VOUT+ cap_res_Y sky130_fd_pr__cap_mim_m3_1 l=2 w=2