* NGSPICE file created from bgr_opamp_dummy_magic_8.ext - technology: sky130A

.subckt two_stage_opamp_dummy_magic_11 VDDA V_CMFB_S1 V_CMFB_S3 Vb3 Vb2 Vb1 V_CMFB_S2
+ V_CMFB_S4 VOUT- VOUT+ V_tail_gate V_err_amp_ref V_err_gate VIN+ VIN- GNDA
X0 VD4 Vb2 Y VD4 sky130_fd_pr__pfet_01v8 ad=0.7 pd=3.9 as=0.7 ps=3.9 w=3.5 l=0.2
X1 VD1 VIN- V_source GNDA sky130_fd_pr__nfet_01v8 ad=0.3 pd=1.9 as=0.3 ps=1.9 w=1.5 l=0.15
X2 VDDA Vb3 VD3 VDDA sky130_fd_pr__pfet_01v8 ad=0.7 pd=3.9 as=0.7 ps=3.9 w=3.5 l=0.2
X3 VOUT- X VDDA VDDA sky130_fd_pr__pfet_01v8 ad=1.2 pd=6.4 as=1.2 ps=6.4 w=6 l=0.15
X4 VOUT- cap_res_X sky130_fd_pr__cap_mim_m3_1 l=2 w=2
X5 VOUT+ cap_res_Y sky130_fd_pr__cap_mim_m3_1 l=2 w=2
X6 VOUT- cap_res_X sky130_fd_pr__cap_mim_m3_1 l=2 w=2
X7 VOUT+ cap_res_Y sky130_fd_pr__cap_mim_m3_1 l=2 w=2
X8 VOUT- cap_res_X sky130_fd_pr__cap_mim_m3_1 l=2 w=2
X9 VOUT+ cap_res_Y sky130_fd_pr__cap_mim_m3_1 l=2 w=2
X10 V_source V_tail_gate GNDA GNDA sky130_fd_pr__nfet_01v8 ad=0.5 pd=2.9 as=0.5 ps=2.9 w=2.5 l=0.15
X11 err_amp_out GNDA GNDA GNDA sky130_fd_pr__nfet_01v8 ad=0.1 pd=0.9 as=0.2 ps=1.8 w=0.5 l=0.15
X12 VDDA Vb3 VD3 VDDA sky130_fd_pr__pfet_01v8 ad=0.7 pd=3.9 as=0.7 ps=3.9 w=3.5 l=0.2
X13 VDDA X V_CMFB_S2 GNDA sky130_fd_pr__nfet_01v8 ad=0.6 pd=3.4 as=0.6 ps=3.4 w=3 l=0.15
X14 VOUT+ a_109990_5430# VDDA VDDA sky130_fd_pr__pfet_01v8 ad=1.2 pd=6.4 as=2.4 ps=12.8 w=6 l=0.15
X15 VDDA Y V_CMFB_S4 GNDA sky130_fd_pr__nfet_01v8 ad=0.6 pd=3.4 as=0.6 ps=3.4 w=3 l=0.15
X16 VDDA V_err_gate V_err_p VDDA sky130_fd_pr__pfet_01v8 ad=0.1 pd=0.9 as=0.1 ps=0.9 w=0.5 l=0.15
X17 VDDA Y V_CMFB_S4 GNDA sky130_fd_pr__nfet_01v8 ad=0.6 pd=3.4 as=0.6 ps=3.4 w=3 l=0.15
X18 Vb2_Vb3 Vb2_Vb3 Vb2_Vb3 Vb2_Vb3 sky130_fd_pr__pfet_01v8 ad=1.44 pd=8 as=5.74 ps=31.9 w=3.6 l=0.2
X19 VOUT+ cap_res_Y sky130_fd_pr__cap_mim_m3_1 l=2 w=2
X20 VD1 Vb1 X GNDA sky130_fd_pr__nfet_01v8 ad=0.3 pd=1.9 as=0.3 ps=1.9 w=1.5 l=0.15
X21 VOUT- cap_res_X sky130_fd_pr__cap_mim_m3_1 l=2 w=2
X22 VOUT+ cap_res_Y sky130_fd_pr__cap_mim_m3_1 l=2 w=2
X23 err_amp_mir V_tot V_err_p VDDA sky130_fd_pr__pfet_01v8 ad=0.1 pd=0.9 as=0.1 ps=0.9 w=0.5 l=0.15
X24 GNDA X V_CMFB_S1 VDDA sky130_fd_pr__pfet_01v8 ad=0.4 pd=2.4 as=0.4 ps=2.4 w=2 l=0.15
X25 V_source VIN- VD1 GNDA sky130_fd_pr__nfet_01v8 ad=0.3 pd=1.9 as=0.3 ps=1.9 w=1.5 l=0.15
X26 VOUT+ cap_res_Y sky130_fd_pr__cap_mim_m3_1 l=2 w=2
X27 GNDA err_amp_mir err_amp_out GNDA sky130_fd_pr__nfet_01v8 ad=0.1 pd=0.9 as=0.1 ps=0.9 w=0.5 l=0.15
X28 GNDA GNDA VOUT+ GNDA sky130_fd_pr__nfet_01v8 ad=2.8 pd=14.8 as=1.4 ps=7.4 w=7 l=0.6
X29 VD2 Vb1 Y GNDA sky130_fd_pr__nfet_01v8 ad=0.3 pd=1.9 as=0.3 ps=1.9 w=1.5 l=0.15
X30 VD4 Vb2 Y VD4 sky130_fd_pr__pfet_01v8 ad=0.7 pd=3.9 as=0.7 ps=3.9 w=3.5 l=0.2
X31 VDDA Vb3 VD3 VDDA sky130_fd_pr__pfet_01v8 ad=0.7 pd=3.9 as=0.7 ps=3.9 w=3.5 l=0.2
X32 VOUT+ cap_res_Y sky130_fd_pr__cap_mim_m3_1 l=2 w=2
X33 VOUT- cap_res_X sky130_fd_pr__cap_mim_m3_1 l=2 w=2
X34 VOUT- cap_res_X sky130_fd_pr__cap_mim_m3_1 l=2 w=2
X35 VOUT+ cap_res_Y sky130_fd_pr__cap_mim_m3_1 l=2 w=2
X36 VOUT+ cap_res_Y sky130_fd_pr__cap_mim_m3_1 l=2 w=2
X37 VOUT+ cap_res_Y sky130_fd_pr__cap_mim_m3_1 l=2 w=2
X38 VOUT- cap_res_X sky130_fd_pr__cap_mim_m3_1 l=2 w=2
X39 VOUT- cap_res_X sky130_fd_pr__cap_mim_m3_1 l=2 w=2
X40 V_CMFB_S3 Y GNDA VDDA sky130_fd_pr__pfet_01v8 ad=0.4 pd=2.4 as=0.4 ps=2.4 w=2 l=0.15
X41 VD3 Vb2 X VD3 sky130_fd_pr__pfet_01v8 ad=0.7 pd=3.9 as=0.7 ps=3.9 w=3.5 l=0.2
X42 VOUT- X VDDA VDDA sky130_fd_pr__pfet_01v8 ad=1.2 pd=6.4 as=1.2 ps=6.4 w=6 l=0.15
X43 VDDA VDDA GNDA VDDA sky130_fd_pr__pfet_01v8 ad=0.8 pd=4.8 as=0.4 ps=2.4 w=2 l=0.15
X44 V_err_gate V_err_amp_ref V_err_mir_p VDDA sky130_fd_pr__pfet_01v8 ad=0.1 pd=0.9 as=0.1 ps=0.9 w=0.5 l=0.15
X45 VOUT+ cap_res_Y sky130_fd_pr__cap_mim_m3_1 l=2 w=2
X46 Vb2_Vb3 Vb2_Vb3 Vb3 Vb2_Vb3 sky130_fd_pr__pfet_01v8 ad=1.44 pd=8 as=0.72 ps=4 w=3.6 l=0.2
X47 V_source V_tail_gate GNDA GNDA sky130_fd_pr__nfet_01v8 ad=0.5 pd=2.9 as=0.5 ps=2.9 w=2.5 l=0.15
X48 VOUT+ cap_res_Y sky130_fd_pr__cap_mim_m3_1 l=2 w=2
X49 V_source V_tail_gate GNDA GNDA sky130_fd_pr__nfet_01v8 ad=0.5 pd=2.9 as=0.5 ps=2.9 w=2.5 l=0.15
X50 VDDA Vb3 VD4 VDDA sky130_fd_pr__pfet_01v8 ad=0.7 pd=3.9 as=0.7 ps=3.9 w=3.5 l=0.2
X51 VOUT+ cap_res_Y sky130_fd_pr__cap_mim_m3_1 l=2 w=2
X52 VOUT+ cap_res_Y sky130_fd_pr__cap_mim_m3_1 l=2 w=2
X53 VOUT+ cap_res_Y sky130_fd_pr__cap_mim_m3_1 l=2 w=2
X54 VOUT+ cap_res_Y sky130_fd_pr__cap_mim_m3_1 l=2 w=2
X55 VOUT- V_b_2nd_stage GNDA GNDA sky130_fd_pr__nfet_01v8 ad=1.4 pd=7.4 as=1.4 ps=7.4 w=7 l=0.6
X56 VDDA X V_CMFB_S2 GNDA sky130_fd_pr__nfet_01v8 ad=0.6 pd=3.4 as=0.6 ps=3.4 w=3 l=0.15
X57 VDDA V_err_gate V_err_mir_p VDDA sky130_fd_pr__pfet_01v8 ad=0.1 pd=0.9 as=0.1 ps=0.9 w=0.5 l=0.15
X58 VOUT+ cap_res_Y sky130_fd_pr__cap_mim_m3_1 l=2 w=2
X59 VOUT- cap_res_X sky130_fd_pr__cap_mim_m3_1 l=2 w=2
X60 VD3 Vb3 VDDA VDDA sky130_fd_pr__pfet_01v8 ad=0.7 pd=3.9 as=0.7 ps=3.9 w=3.5 l=0.2
X61 VDDA V_err_gate V_err_mir_p VDDA sky130_fd_pr__pfet_01v8 ad=0.1 pd=0.9 as=0.1 ps=0.9 w=0.5 l=0.15
X62 VD1 Vb1 X GNDA sky130_fd_pr__nfet_01v8 ad=0.3 pd=1.9 as=0.3 ps=1.9 w=1.5 l=0.15
X63 VOUT+ cap_res_Y sky130_fd_pr__cap_mim_m3_1 l=2 w=2
X64 err_amp_mir V_tot V_err_p VDDA sky130_fd_pr__pfet_01v8 ad=0.1 pd=0.9 as=0.1 ps=0.9 w=0.5 l=0.15
X65 VOUT+ cap_res_Y sky130_fd_pr__cap_mim_m3_1 l=2 w=2
X66 VDDA Y VOUT+ VDDA sky130_fd_pr__pfet_01v8 ad=1.2 pd=6.4 as=1.2 ps=6.4 w=6 l=0.15
X67 VDDA a_111200_5430# VOUT+ VDDA sky130_fd_pr__pfet_01v8 ad=2.4 pd=12.8 as=1.2 ps=6.4 w=6 l=0.15
X68 GNDA X V_CMFB_S1 VDDA sky130_fd_pr__pfet_01v8 ad=0.4 pd=2.4 as=0.4 ps=2.4 w=2 l=0.15
X69 VDDA VDDA VDDA VDDA sky130_fd_pr__pfet_01v8 ad=0.71 pd=3.95 as=64.791 ps=366.38 w=3.55 l=0.2
X70 VOUT- cap_res_X sky130_fd_pr__cap_mim_m3_1 l=2 w=2
X71 V_source VIN+ VD2 GNDA sky130_fd_pr__nfet_01v8 ad=0.3 pd=1.9 as=0.3 ps=1.9 w=1.5 l=0.15
X72 VOUT+ cap_res_Y sky130_fd_pr__cap_mim_m3_1 l=2 w=2
X73 VOUT+ cap_res_Y sky130_fd_pr__cap_mim_m3_1 l=2 w=2
X74 VOUT+ cap_res_Y sky130_fd_pr__cap_mim_m3_1 l=2 w=2
X75 GNDA GNDA V_source GNDA sky130_fd_pr__nfet_01v8 ad=1 pd=5.8 as=0.5 ps=2.9 w=2.5 l=0.15
X76 VDDA GNDA GNDA GNDA sky130_fd_pr__nfet_01v8 ad=0.6 pd=3.4 as=1.2 ps=6.8 w=3 l=0.15
X77 GNDA err_amp_mir err_amp_mir GNDA sky130_fd_pr__nfet_01v8 ad=0.1 pd=0.9 as=0.1 ps=0.9 w=0.5 l=0.15
X78 VOUT+ cap_res_Y sky130_fd_pr__cap_mim_m3_1 l=2 w=2
X79 VDDA Vb3 VD4 VDDA sky130_fd_pr__pfet_01v8 ad=0.7 pd=3.9 as=0.7 ps=3.9 w=3.5 l=0.2
X80 GNDA GNDA err_amp_mir GNDA sky130_fd_pr__nfet_01v8 ad=0.2 pd=1.8 as=0.1 ps=0.9 w=0.5 l=0.15
X81 VOUT+ cap_res_Y sky130_fd_pr__cap_mim_m3_1 l=2 w=2
X82 VOUT- cap_res_X sky130_fd_pr__cap_mim_m3_1 l=2 w=2
X83 VOUT- cap_res_X sky130_fd_pr__cap_mim_m3_1 l=2 w=2
X84 VOUT+ cap_res_Y sky130_fd_pr__cap_mim_m3_1 l=2 w=2
X85 VOUT- cap_res_X sky130_fd_pr__cap_mim_m3_1 l=2 w=2
X86 VOUT+ cap_res_Y sky130_fd_pr__cap_mim_m3_1 l=2 w=2
X87 VOUT+ GNDA GNDA GNDA sky130_fd_pr__nfet_01v8 ad=1.4 pd=7.4 as=2.8 ps=14.8 w=7 l=0.6
X88 V_err_p V_err_gate VDDA VDDA sky130_fd_pr__pfet_01v8 ad=0.1 pd=0.9 as=0.1 ps=0.9 w=0.5 l=0.15
X89 VOUT+ cap_res_Y sky130_fd_pr__cap_mim_m3_1 l=2 w=2
X90 VOUT- cap_res_X sky130_fd_pr__cap_mim_m3_1 l=2 w=2
X91 V_CMFB_S3 Y GNDA VDDA sky130_fd_pr__pfet_01v8 ad=0.4 pd=2.4 as=0.4 ps=2.4 w=2 l=0.15
X92 GNDA GNDA V_tail_gate GNDA sky130_fd_pr__nfet_01v8 ad=0.6 pd=3.8 as=0.3 ps=1.9 w=1.5 l=0.15
X93 VD1 VIN- V_source GNDA sky130_fd_pr__nfet_01v8 ad=0.3 pd=1.9 as=0.3 ps=1.9 w=1.5 l=0.15
X94 VOUT- X VDDA VDDA sky130_fd_pr__pfet_01v8 ad=1.2 pd=6.4 as=1.2 ps=6.4 w=6 l=0.15
X95 VOUT+ cap_res_Y sky130_fd_pr__cap_mim_m3_1 l=2 w=2
X96 V_err_gate V_err_amp_ref V_err_mir_p VDDA sky130_fd_pr__pfet_01v8 ad=0.1 pd=0.9 as=0.1 ps=0.9 w=0.5 l=0.15
X97 VOUT+ cap_res_Y sky130_fd_pr__cap_mim_m3_1 l=2 w=2
X98 VOUT- cap_res_X sky130_fd_pr__cap_mim_m3_1 l=2 w=2
X99 VOUT+ V_b_2nd_stage GNDA GNDA sky130_fd_pr__nfet_01v8 ad=1.4 pd=7.4 as=1.4 ps=7.4 w=7 l=0.6
X100 VOUT+ cap_res_Y sky130_fd_pr__cap_mim_m3_1 l=2 w=2
X101 VD3 Vb3 VDDA VDDA sky130_fd_pr__pfet_01v8 ad=0.7 pd=3.9 as=0.7 ps=3.9 w=3.5 l=0.2
X102 V_source V_tail_gate GNDA GNDA sky130_fd_pr__nfet_01v8 ad=0.5 pd=2.9 as=0.5 ps=2.9 w=2.5 l=0.15
X103 VOUT- cap_res_X sky130_fd_pr__cap_mim_m3_1 l=2 w=2
X104 VOUT+ cap_res_Y sky130_fd_pr__cap_mim_m3_1 l=2 w=2
X105 VOUT+ cap_res_Y sky130_fd_pr__cap_mim_m3_1 l=2 w=2
X106 VOUT- cap_res_X sky130_fd_pr__cap_mim_m3_1 l=2 w=2
X107 Vb3 Vb2 Vb2_Vb3 Vb2_Vb3 sky130_fd_pr__pfet_01v8 ad=0.72 pd=4 as=0.72 ps=4 w=3.6 l=0.2
X108 VOUT- cap_res_X sky130_fd_pr__cap_mim_m3_1 l=2 w=2
X109 VDDA X V_CMFB_S2 GNDA sky130_fd_pr__nfet_01v8 ad=0.6 pd=3.4 as=0.6 ps=3.4 w=3 l=0.15
X110 VDDA V_err_gate V_err_mir_p VDDA sky130_fd_pr__pfet_01v8 ad=0.1 pd=0.9 as=0.1 ps=0.9 w=0.5 l=0.15
X111 VDDA V_err_gate V_err_p VDDA sky130_fd_pr__pfet_01v8 ad=0.1 pd=0.9 as=0.1 ps=0.9 w=0.5 l=0.15
X112 VOUT+ V_b_2nd_stage GNDA GNDA sky130_fd_pr__nfet_01v8 ad=1.4 pd=7.4 as=1.4 ps=7.4 w=7 l=0.6
X113 err_amp_out V_err_amp_ref V_err_p VDDA sky130_fd_pr__pfet_01v8 ad=0.1 pd=0.9 as=0.1 ps=0.9 w=0.5 l=0.15
X114 VOUT- cap_res_X sky130_fd_pr__cap_mim_m3_1 l=2 w=2
X115 VOUT+ cap_res_Y sky130_fd_pr__cap_mim_m3_1 l=2 w=2
X116 VDDA VDDA VD4 VDDA sky130_fd_pr__pfet_01v8 ad=1.575 pd=7.9 as=0.7 ps=3.9 w=3.5 l=0.2
X117 VDDA Y VOUT+ VDDA sky130_fd_pr__pfet_01v8 ad=1.2 pd=6.4 as=1.2 ps=6.4 w=6 l=0.15
X118 VOUT+ cap_res_Y sky130_fd_pr__cap_mim_m3_1 l=2 w=2
X119 VOUT- cap_res_X sky130_fd_pr__cap_mim_m3_1 l=2 w=2
X120 GNDA X V_CMFB_S1 VDDA sky130_fd_pr__pfet_01v8 ad=0.4 pd=2.4 as=0.4 ps=2.4 w=2 l=0.15
X121 VOUT- cap_res_X sky130_fd_pr__cap_mim_m3_1 l=2 w=2
X122 VOUT+ cap_res_Y sky130_fd_pr__cap_mim_m3_1 l=2 w=2
X123 VOUT+ cap_res_Y sky130_fd_pr__cap_mim_m3_1 l=2 w=2
X124 VOUT- cap_res_X sky130_fd_pr__cap_mim_m3_1 l=2 w=2
X125 VD3 Vb3 VDDA VDDA sky130_fd_pr__pfet_01v8 ad=0.7 pd=3.9 as=0.7 ps=3.9 w=3.5 l=0.2
X126 VOUT- cap_res_X sky130_fd_pr__cap_mim_m3_1 l=2 w=2
X127 VOUT+ cap_res_Y sky130_fd_pr__cap_mim_m3_1 l=2 w=2
X128 GNDA V_tail_gate V_source GNDA sky130_fd_pr__nfet_01v8 ad=0.5 pd=2.9 as=0.5 ps=2.9 w=2.5 l=0.15
X129 X VD3 VD3 VD3 sky130_fd_pr__pfet_01v8 ad=0.7 pd=3.9 as=1.4 ps=7.8 w=3.5 l=0.2
X130 GNDA err_amp_mir err_amp_out GNDA sky130_fd_pr__nfet_01v8 ad=0.1 pd=0.9 as=0.1 ps=0.9 w=0.5 l=0.15
X131 VOUT- cap_res_X sky130_fd_pr__cap_mim_m3_1 l=2 w=2
X132 VOUT+ cap_res_Y sky130_fd_pr__cap_mim_m3_1 l=2 w=2
X133 VOUT+ cap_res_Y sky130_fd_pr__cap_mim_m3_1 l=2 w=2
X134 GNDA V_b_2nd_stage VOUT- GNDA sky130_fd_pr__nfet_01v8 ad=1.4 pd=7.4 as=1.4 ps=7.4 w=7 l=0.6
X135 VOUT+ cap_res_Y sky130_fd_pr__cap_mim_m3_1 l=2 w=2
X136 V_CMFB_S4 Y VDDA GNDA sky130_fd_pr__nfet_01v8 ad=0.6 pd=3.4 as=0.6 ps=3.4 w=3 l=0.15
X137 GNDA GNDA VDDA GNDA sky130_fd_pr__nfet_01v8 ad=1.2 pd=6.8 as=0.6 ps=3.4 w=3 l=0.15
X138 V_err_mir_p V_err_gate VDDA VDDA sky130_fd_pr__pfet_01v8 ad=0.1 pd=0.9 as=0.1 ps=0.9 w=0.5 l=0.15
X139 VOUT+ cap_res_Y sky130_fd_pr__cap_mim_m3_1 l=2 w=2
X140 VOUT- cap_res_X sky130_fd_pr__cap_mim_m3_1 l=2 w=2
X141 VOUT+ cap_res_Y sky130_fd_pr__cap_mim_m3_1 l=2 w=2
X142 V_err_p V_err_amp_ref err_amp_out VDDA sky130_fd_pr__pfet_01v8 ad=0.1 pd=0.9 as=0.1 ps=0.9 w=0.5 l=0.15
X143 VOUT+ cap_res_Y sky130_fd_pr__cap_mim_m3_1 l=2 w=2
X144 V_CMFB_S3 Y GNDA VDDA sky130_fd_pr__pfet_01v8 ad=0.4 pd=2.4 as=0.4 ps=2.4 w=2 l=0.15
X145 VOUT- cap_res_X sky130_fd_pr__cap_mim_m3_1 l=2 w=2
X146 VOUT- cap_res_X sky130_fd_pr__cap_mim_m3_1 l=2 w=2
X147 VOUT+ cap_res_Y sky130_fd_pr__cap_mim_m3_1 l=2 w=2
X148 VOUT- X VDDA VDDA sky130_fd_pr__pfet_01v8 ad=1.2 pd=6.4 as=1.2 ps=6.4 w=6 l=0.15
X149 V_p_mir VIN- V_tail_gate GNDA sky130_fd_pr__nfet_01v8 ad=0.3 pd=1.9 as=0.3 ps=1.9 w=1.5 l=0.15
X150 VD2 VIN+ V_source GNDA sky130_fd_pr__nfet_01v8 ad=0.3 pd=1.9 as=0.3 ps=1.9 w=1.5 l=0.15
X151 VOUT- cap_res_X sky130_fd_pr__cap_mim_m3_1 l=2 w=2
X152 V_err_gate V_tot V_err_mir_p VDDA sky130_fd_pr__pfet_01v8 ad=0.1 pd=0.9 as=0.1 ps=0.9 w=0.5 l=0.15
X153 VOUT- cap_res_X sky130_fd_pr__cap_mim_m3_1 l=2 w=2
X154 GNDA V_b_2nd_stage VOUT- GNDA sky130_fd_pr__nfet_01v8 ad=1.4 pd=7.4 as=1.4 ps=7.4 w=7 l=0.6
X155 VD4 Vb3 VDDA VDDA sky130_fd_pr__pfet_01v8 ad=0.7 pd=3.9 as=0.7 ps=3.9 w=3.5 l=0.2
X156 V_source V_tail_gate GNDA GNDA sky130_fd_pr__nfet_01v8 ad=0.5 pd=2.9 as=0.5 ps=2.9 w=2.5 l=0.15
X157 Y Vb1 VD2 GNDA sky130_fd_pr__nfet_01v8 ad=0.3 pd=1.9 as=0.3 ps=1.9 w=1.5 l=0.15
X158 VOUT+ cap_res_Y sky130_fd_pr__cap_mim_m3_1 l=2 w=2
X159 VOUT- cap_res_X sky130_fd_pr__cap_mim_m3_1 l=2 w=2
X160 VDDA VDDA VDDA VDDA sky130_fd_pr__pfet_01v8 ad=0.252 pd=2.06 as=0 ps=0 w=0.63 l=0.2
X161 VOUT+ cap_res_Y sky130_fd_pr__cap_mim_m3_1 l=2 w=2
X162 VDDA X V_CMFB_S2 GNDA sky130_fd_pr__nfet_01v8 ad=0.6 pd=3.4 as=0.6 ps=3.4 w=3 l=0.15
X163 VDDA V_err_gate V_err_p VDDA sky130_fd_pr__pfet_01v8 ad=0.1 pd=0.9 as=0.1 ps=0.9 w=0.5 l=0.15
X164 VOUT- cap_res_X sky130_fd_pr__cap_mim_m3_1 l=2 w=2
X165 VOUT- cap_res_X sky130_fd_pr__cap_mim_m3_1 l=2 w=2
X166 VOUT+ cap_res_Y sky130_fd_pr__cap_mim_m3_1 l=2 w=2
X167 VOUT- cap_res_X sky130_fd_pr__cap_mim_m3_1 l=2 w=2
X168 VOUT- cap_res_X sky130_fd_pr__cap_mim_m3_1 l=2 w=2
X169 VOUT- cap_res_X sky130_fd_pr__cap_mim_m3_1 l=2 w=2
X170 err_amp_mir VDDA VDDA VDDA sky130_fd_pr__pfet_01v8 ad=0.1 pd=0.9 as=0.2 ps=1.8 w=0.5 l=0.15
X171 VDDA Y VOUT+ VDDA sky130_fd_pr__pfet_01v8 ad=1.2 pd=6.4 as=1.2 ps=6.4 w=6 l=0.15
X172 GNDA VDDA VDDA VDDA sky130_fd_pr__pfet_01v8 ad=0.4 pd=2.4 as=0.8 ps=4.8 w=2 l=0.15
X173 VOUT- cap_res_X sky130_fd_pr__cap_mim_m3_1 l=2 w=2
X174 VD4 Vb3 VDDA VDDA sky130_fd_pr__pfet_01v8 ad=0.7 pd=3.9 as=0.7 ps=3.9 w=3.5 l=0.2
X175 VOUT- cap_res_X sky130_fd_pr__cap_mim_m3_1 l=2 w=2
X176 GNDA V_tail_gate V_source GNDA sky130_fd_pr__nfet_01v8 ad=0.5 pd=2.9 as=0.5 ps=2.9 w=2.5 l=0.15
X177 VOUT+ cap_res_Y sky130_fd_pr__cap_mim_m3_1 l=2 w=2
X178 V_CMFB_S4 Y VDDA GNDA sky130_fd_pr__nfet_01v8 ad=0.6 pd=3.4 as=0.6 ps=3.4 w=3 l=0.15
X179 VOUT- cap_res_X sky130_fd_pr__cap_mim_m3_1 l=2 w=2
X180 VOUT- cap_res_X sky130_fd_pr__cap_mim_m3_1 l=2 w=2
X181 VOUT- cap_res_X sky130_fd_pr__cap_mim_m3_1 l=2 w=2
X182 VOUT- cap_res_X sky130_fd_pr__cap_mim_m3_1 l=2 w=2
X183 VOUT+ cap_res_Y sky130_fd_pr__cap_mim_m3_1 l=2 w=2
X184 VD4 Vb3 VDDA VDDA sky130_fd_pr__pfet_01v8 ad=0.7 pd=3.9 as=0.7 ps=3.9 w=3.5 l=0.2
X185 VOUT- cap_res_X sky130_fd_pr__cap_mim_m3_1 l=2 w=2
X186 VOUT+ cap_res_Y sky130_fd_pr__cap_mim_m3_1 l=2 w=2
X187 V_err_p V_tot err_amp_mir VDDA sky130_fd_pr__pfet_01v8 ad=0.1 pd=0.9 as=0.1 ps=0.9 w=0.5 l=0.15
X188 X Vb1 VD1 GNDA sky130_fd_pr__nfet_01v8 ad=0.3 pd=1.9 as=0.3 ps=1.9 w=1.5 l=0.15
X189 X Vb2 VD3 VD3 sky130_fd_pr__pfet_01v8 ad=0.7 pd=3.9 as=0.7 ps=3.9 w=3.5 l=0.2
X190 VD2 VIN+ V_source GNDA sky130_fd_pr__nfet_01v8 ad=0.3 pd=1.9 as=0.3 ps=1.9 w=1.5 l=0.15
X191 V_CMFB_S1 X GNDA VDDA sky130_fd_pr__pfet_01v8 ad=0.4 pd=2.4 as=0.4 ps=2.4 w=2 l=0.15
X192 VOUT- a_116370_5430# VDDA VDDA sky130_fd_pr__pfet_01v8 ad=1.2 pd=6.4 as=2.4 ps=12.8 w=6 l=0.15
X193 V_CMFB_S3 Y GNDA VDDA sky130_fd_pr__pfet_01v8 ad=0.4 pd=2.4 as=0.4 ps=2.4 w=2 l=0.15
X194 VOUT- cap_res_X sky130_fd_pr__cap_mim_m3_1 l=2 w=2
X195 VD1 VIN- V_source GNDA sky130_fd_pr__nfet_01v8 ad=0.3 pd=1.9 as=0.3 ps=1.9 w=1.5 l=0.15
X196 VDDA Vb3 VD3 VDDA sky130_fd_pr__pfet_01v8 ad=0.7 pd=3.9 as=0.7 ps=3.9 w=3.5 l=0.2
X197 V_err_gate V_err_amp_ref V_err_mir_p VDDA sky130_fd_pr__pfet_01v8 ad=0.1 pd=0.9 as=0.1 ps=0.9 w=0.5 l=0.15
X198 VOUT+ cap_res_Y sky130_fd_pr__cap_mim_m3_1 l=2 w=2
X199 VDDA VDDA Vb2 VDDA sky130_fd_pr__pfet_01v8 ad=0.252 pd=2.06 as=0.126 ps=1.03 w=0.63 l=0.2
X200 Y Vb1 VD2 GNDA sky130_fd_pr__nfet_01v8 ad=0.3 pd=1.9 as=0.3 ps=1.9 w=1.5 l=0.15
X201 VOUT- cap_res_X sky130_fd_pr__cap_mim_m3_1 l=2 w=2
X202 V_p_mir V_tail_gate GNDA GNDA sky130_fd_pr__nfet_01v8 ad=0.5 pd=2.9 as=0.5 ps=2.9 w=2.5 l=0.15
X203 Y Vb1 VD2 GNDA sky130_fd_pr__nfet_01v8 ad=0.3 pd=1.9 as=0.3 ps=1.9 w=1.5 l=0.15
X204 VOUT+ cap_res_Y sky130_fd_pr__cap_mim_m3_1 l=2 w=2
X205 VOUT+ cap_res_Y sky130_fd_pr__cap_mim_m3_1 l=2 w=2
X206 VOUT- cap_res_X sky130_fd_pr__cap_mim_m3_1 l=2 w=2
X207 VOUT- cap_res_X sky130_fd_pr__cap_mim_m3_1 l=2 w=2
X208 VOUT+ cap_res_Y sky130_fd_pr__cap_mim_m3_1 l=2 w=2
X209 VOUT- cap_res_X sky130_fd_pr__cap_mim_m3_1 l=2 w=2
X210 VOUT+ cap_res_Y sky130_fd_pr__cap_mim_m3_1 l=2 w=2
X211 VD4 Vb2 Y VD4 sky130_fd_pr__pfet_01v8 ad=0.7 pd=3.9 as=0.7 ps=3.9 w=3.5 l=0.2
X212 VDDA X V_CMFB_S2 GNDA sky130_fd_pr__nfet_01v8 ad=0.6 pd=3.4 as=0.6 ps=3.4 w=3 l=0.15
X213 VOUT- cap_res_X sky130_fd_pr__cap_mim_m3_1 l=2 w=2
X214 VOUT- cap_res_X sky130_fd_pr__cap_mim_m3_1 l=2 w=2
X215 cap_res_X X GNDA sky130_fd_pr__res_high_po_1p41 l=1.41
X216 VDDA X VOUT- VDDA sky130_fd_pr__pfet_01v8 ad=1.2 pd=6.4 as=1.2 ps=6.4 w=6 l=0.15
X217 VDDA Y VOUT+ VDDA sky130_fd_pr__pfet_01v8 ad=1.2 pd=6.4 as=1.2 ps=6.4 w=6 l=0.15
X218 VOUT- cap_res_X sky130_fd_pr__cap_mim_m3_1 l=2 w=2
X219 VDDA VDDA VD3 VDDA sky130_fd_pr__pfet_01v8 ad=1.4 pd=7.8 as=0.7 ps=3.9 w=3.5 l=0.2
X220 VD3 Vb2 X VD3 sky130_fd_pr__pfet_01v8 ad=0.7 pd=3.9 as=0.7 ps=3.9 w=3.5 l=0.2
X221 VOUT+ cap_res_Y sky130_fd_pr__cap_mim_m3_1 l=2 w=2
X222 VOUT- cap_res_X sky130_fd_pr__cap_mim_m3_1 l=2 w=2
X223 VOUT+ cap_res_Y sky130_fd_pr__cap_mim_m3_1 l=2 w=2
X224 VOUT- cap_res_X sky130_fd_pr__cap_mim_m3_1 l=2 w=2
X225 VOUT- cap_res_X sky130_fd_pr__cap_mim_m3_1 l=2 w=2
X226 V_CMFB_S4 Y VDDA GNDA sky130_fd_pr__nfet_01v8 ad=0.6 pd=3.4 as=0.6 ps=3.4 w=3 l=0.15
X227 V_err_p V_err_gate VDDA VDDA sky130_fd_pr__pfet_01v8 ad=0.1 pd=0.9 as=0.1 ps=0.9 w=0.5 l=0.15
X228 VOUT+ cap_res_Y sky130_fd_pr__cap_mim_m3_1 l=2 w=2
X229 X Vb1 VD1 GNDA sky130_fd_pr__nfet_01v8 ad=0.3 pd=1.9 as=0.3 ps=1.9 w=1.5 l=0.15
X230 X Vb1 VD1 GNDA sky130_fd_pr__nfet_01v8 ad=0.3 pd=1.9 as=0.3 ps=1.9 w=1.5 l=0.15
X231 V_b_2nd_stage a_109420_966# GNDA sky130_fd_pr__res_xhigh_po_0p35 l=2.63
X232 VDDA VDDA err_amp_out VDDA sky130_fd_pr__pfet_01v8 ad=0.2 pd=1.8 as=0.1 ps=0.9 w=0.5 l=0.15
X233 VD1 VIN- V_source GNDA sky130_fd_pr__nfet_01v8 ad=0.3 pd=1.9 as=0.3 ps=1.9 w=1.5 l=0.15
X234 V_CMFB_S1 X GNDA VDDA sky130_fd_pr__pfet_01v8 ad=0.4 pd=2.4 as=0.4 ps=2.4 w=2 l=0.15
X235 VDDA VDDA GNDA VDDA sky130_fd_pr__pfet_01v8 ad=0.8 pd=4.8 as=0.4 ps=2.4 w=2 l=0.15
X236 VDDA Vb3 VD4 VDDA sky130_fd_pr__pfet_01v8 ad=0.7 pd=3.9 as=0.7 ps=3.9 w=3.5 l=0.2
X237 V_CMFB_S3 Y GNDA VDDA sky130_fd_pr__pfet_01v8 ad=0.4 pd=2.4 as=0.4 ps=2.4 w=2 l=0.15
X238 VOUT- cap_res_X sky130_fd_pr__cap_mim_m3_1 l=2 w=2
X239 VOUT+ cap_res_Y sky130_fd_pr__cap_mim_m3_1 l=2 w=2
X240 VD1 VIN- V_source GNDA sky130_fd_pr__nfet_01v8 ad=0.3 pd=1.9 as=0.3 ps=1.9 w=1.5 l=0.15
X241 VOUT+ cap_res_Y sky130_fd_pr__cap_mim_m3_1 l=2 w=2
X242 VOUT+ cap_res_Y sky130_fd_pr__cap_mim_m3_1 l=2 w=2
X243 VD2 VIN+ V_source GNDA sky130_fd_pr__nfet_01v8 ad=0.3 pd=1.9 as=0.3 ps=1.9 w=1.5 l=0.15
X244 V_err_gate VDDA VDDA VDDA sky130_fd_pr__pfet_01v8 ad=0.1 pd=0.9 as=0.2 ps=1.8 w=0.5 l=0.15
X245 V_err_gate V_tot V_err_mir_p VDDA sky130_fd_pr__pfet_01v8 ad=0.1 pd=0.9 as=0.1 ps=0.9 w=0.5 l=0.15
X246 VOUT+ cap_res_Y sky130_fd_pr__cap_mim_m3_1 l=2 w=2
X247 VOUT+ cap_res_Y sky130_fd_pr__cap_mim_m3_1 l=2 w=2
X248 VOUT+ cap_res_Y sky130_fd_pr__cap_mim_m3_1 l=2 w=2
X249 a_109020_3958# V_tot GNDA sky130_fd_pr__res_xhigh_po_0p35 l=1.75
X250 Y Vb1 VD2 GNDA sky130_fd_pr__nfet_01v8 ad=0.3 pd=1.9 as=0.3 ps=1.9 w=1.5 l=0.15
X251 V_source V_tail_gate GNDA GNDA sky130_fd_pr__nfet_01v8 ad=0.5 pd=2.9 as=0.5 ps=2.9 w=2.5 l=0.15
X252 Vb2 Vb2 VDDA VDDA sky130_fd_pr__pfet_01v8 ad=0.126 pd=1.03 as=0.126 ps=1.03 w=0.63 l=0.2
X253 VOUT+ cap_res_Y sky130_fd_pr__cap_mim_m3_1 l=2 w=2
X254 VOUT- cap_res_X sky130_fd_pr__cap_mim_m3_1 l=2 w=2
X255 VDDA GNDA GNDA GNDA sky130_fd_pr__nfet_01v8 ad=0.6 pd=3.4 as=1.2 ps=6.8 w=3 l=0.15
X256 VD3 Vb2 X VD3 sky130_fd_pr__pfet_01v8 ad=0.7 pd=3.9 as=0.7 ps=3.9 w=3.5 l=0.2
X257 VDDA V_err_gate V_err_p VDDA sky130_fd_pr__pfet_01v8 ad=0.1 pd=0.9 as=0.1 ps=0.9 w=0.5 l=0.15
X258 Y VD4 VD4 VD4 sky130_fd_pr__pfet_01v8 ad=0.7 pd=3.9 as=1.4 ps=7.8 w=3.5 l=0.2
X259 V_source VIN- VD1 GNDA sky130_fd_pr__nfet_01v8 ad=0.3 pd=1.9 as=0.3 ps=1.9 w=1.5 l=0.15
X260 VDDA X VOUT- VDDA sky130_fd_pr__pfet_01v8 ad=1.2 pd=6.4 as=1.2 ps=6.4 w=6 l=0.15
X261 VOUT- cap_res_X sky130_fd_pr__cap_mim_m3_1 l=2 w=2
X262 VDDA a_117580_5430# VOUT- VDDA sky130_fd_pr__pfet_01v8 ad=2.4 pd=12.8 as=1.2 ps=6.4 w=6 l=0.15
X263 VOUT+ cap_res_Y sky130_fd_pr__cap_mim_m3_1 l=2 w=2
X264 VOUT- cap_res_X sky130_fd_pr__cap_mim_m3_1 l=2 w=2
X265 VOUT+ cap_res_Y sky130_fd_pr__cap_mim_m3_1 l=2 w=2
X266 VDDA Y VOUT+ VDDA sky130_fd_pr__pfet_01v8 ad=1.2 pd=6.4 as=1.2 ps=6.4 w=6 l=0.15
X267 VOUT- a_117950_966# GNDA sky130_fd_pr__res_xhigh_po_0p35 l=2.63
X268 VOUT+ cap_res_Y sky130_fd_pr__cap_mim_m3_1 l=2 w=2
X269 VOUT- cap_res_X sky130_fd_pr__cap_mim_m3_1 l=2 w=2
X270 VOUT+ cap_res_Y sky130_fd_pr__cap_mim_m3_1 l=2 w=2
X271 GNDA V_tail_gate V_source GNDA sky130_fd_pr__nfet_01v8 ad=0.5 pd=2.9 as=0.5 ps=2.9 w=2.5 l=0.15
X272 GNDA err_amp_mir err_amp_out GNDA sky130_fd_pr__nfet_01v8 ad=0.1 pd=0.9 as=0.1 ps=0.9 w=0.5 l=0.15
X273 VOUT+ cap_res_Y sky130_fd_pr__cap_mim_m3_1 l=2 w=2
X274 VOUT- cap_res_X sky130_fd_pr__cap_mim_m3_1 l=2 w=2
X275 V_source Vb1 Vb1 GNDA sky130_fd_pr__nfet_01v8 ad=0.4 pd=2.8 as=0.4 ps=2.8 w=1 l=2.9
X276 VOUT+ cap_res_Y sky130_fd_pr__cap_mim_m3_1 l=2 w=2
X277 V_CMFB_S2 X VDDA GNDA sky130_fd_pr__nfet_01v8 ad=0.6 pd=3.4 as=0.6 ps=3.4 w=3 l=0.15
X278 VOUT+ cap_res_Y sky130_fd_pr__cap_mim_m3_1 l=2 w=2
X279 VDDA Vb3 VD4 VDDA sky130_fd_pr__pfet_01v8 ad=0.7 pd=3.9 as=0.7 ps=3.9 w=3.5 l=0.2
X280 VOUT+ cap_res_Y sky130_fd_pr__cap_mim_m3_1 l=2 w=2
X281 V_CMFB_S4 Y VDDA GNDA sky130_fd_pr__nfet_01v8 ad=0.6 pd=3.4 as=0.6 ps=3.4 w=3 l=0.15
X282 V_err_mir_p V_err_gate VDDA VDDA sky130_fd_pr__pfet_01v8 ad=0.1 pd=0.9 as=0.1 ps=0.9 w=0.5 l=0.15
X283 VD3 Vb2 X VD3 sky130_fd_pr__pfet_01v8 ad=0.7 pd=3.9 as=0.7 ps=3.9 w=3.5 l=0.2
X284 VOUT+ cap_res_Y sky130_fd_pr__cap_mim_m3_1 l=2 w=2
X285 VOUT+ cap_res_Y sky130_fd_pr__cap_mim_m3_1 l=2 w=2
X286 VOUT- cap_res_X sky130_fd_pr__cap_mim_m3_1 l=2 w=2
X287 VOUT+ cap_res_Y sky130_fd_pr__cap_mim_m3_1 l=2 w=2
X288 X Vb1 VD1 GNDA sky130_fd_pr__nfet_01v8 ad=0.3 pd=1.9 as=0.3 ps=1.9 w=1.5 l=0.15
X289 VOUT+ cap_res_Y sky130_fd_pr__cap_mim_m3_1 l=2 w=2
X290 V_err_p V_tot err_amp_mir VDDA sky130_fd_pr__pfet_01v8 ad=0.1 pd=0.9 as=0.1 ps=0.9 w=0.5 l=0.15
X291 VOUT+ cap_res_Y sky130_fd_pr__cap_mim_m3_1 l=2 w=2
X292 VD3 Vb3 VDDA VDDA sky130_fd_pr__pfet_01v8 ad=0.7 pd=3.9 as=0.7 ps=3.9 w=3.5 l=0.2
X293 VD2 GNDA GNDA GNDA sky130_fd_pr__nfet_01v8 ad=0.3 pd=1.9 as=0.6 ps=3.8 w=1.5 l=0.15
X294 V_CMFB_S1 X GNDA VDDA sky130_fd_pr__pfet_01v8 ad=0.4 pd=2.4 as=0.4 ps=2.4 w=2 l=0.15
X295 VOUT+ cap_res_Y sky130_fd_pr__cap_mim_m3_1 l=2 w=2
X296 VD2 VIN+ V_source GNDA sky130_fd_pr__nfet_01v8 ad=0.3 pd=1.9 as=0.3 ps=1.9 w=1.5 l=0.15
X297 VOUT- cap_res_X sky130_fd_pr__cap_mim_m3_1 l=2 w=2
X298 err_amp_mir err_amp_mir GNDA GNDA sky130_fd_pr__nfet_01v8 ad=0.1 pd=0.9 as=0.1 ps=0.9 w=0.5 l=0.15
X299 VOUT+ cap_res_Y sky130_fd_pr__cap_mim_m3_1 l=2 w=2
X300 VOUT- cap_res_X sky130_fd_pr__cap_mim_m3_1 l=2 w=2
X301 Y Vb2 VD4 VD4 sky130_fd_pr__pfet_01v8 ad=0.7 pd=3.9 as=0.7 ps=3.9 w=3.5 l=0.2
X302 Y Vb1 VD2 GNDA sky130_fd_pr__nfet_01v8 ad=0.3 pd=1.9 as=0.3 ps=1.9 w=1.5 l=0.15
X303 VOUT+ cap_res_Y sky130_fd_pr__cap_mim_m3_1 l=2 w=2
X304 V_source V_tail_gate GNDA GNDA sky130_fd_pr__nfet_01v8 ad=0.5 pd=2.9 as=0.5 ps=2.9 w=2.5 l=0.15
X305 a_118270_3958# V_CMFB_S2 GNDA sky130_fd_pr__res_xhigh_po_0p35 l=1.75
X306 VOUT- cap_res_X sky130_fd_pr__cap_mim_m3_1 l=2 w=2
X307 VOUT+ cap_res_Y sky130_fd_pr__cap_mim_m3_1 l=2 w=2
X308 VOUT- cap_res_X sky130_fd_pr__cap_mim_m3_1 l=2 w=2
X309 VOUT- cap_res_X sky130_fd_pr__cap_mim_m3_1 l=2 w=2
X310 X Vb2 VD3 VD3 sky130_fd_pr__pfet_01v8 ad=0.7 pd=3.9 as=0.7 ps=3.9 w=3.5 l=0.2
X311 VDDA X VOUT- VDDA sky130_fd_pr__pfet_01v8 ad=1.2 pd=6.4 as=1.2 ps=6.4 w=6 l=0.15
X312 VOUT- cap_res_X sky130_fd_pr__cap_mim_m3_1 l=2 w=2
X313 VOUT- cap_res_X sky130_fd_pr__cap_mim_m3_1 l=2 w=2
X314 VDDA VDDA V_err_gate VDDA sky130_fd_pr__pfet_01v8 ad=0.2 pd=1.8 as=0.1 ps=0.9 w=0.5 l=0.15
X315 VOUT+ cap_res_Y sky130_fd_pr__cap_mim_m3_1 l=2 w=2
X316 VOUT- cap_res_X sky130_fd_pr__cap_mim_m3_1 l=2 w=2
X317 GNDA V_tail_gate V_source GNDA sky130_fd_pr__nfet_01v8 ad=0.5 pd=2.9 as=0.5 ps=2.9 w=2.5 l=0.15
X318 Y Vb2 VD4 VD4 sky130_fd_pr__pfet_01v8 ad=0.7 pd=3.9 as=0.7 ps=3.9 w=3.5 l=0.2
X319 VOUT- cap_res_X sky130_fd_pr__cap_mim_m3_1 l=2 w=2
X320 VOUT+ cap_res_Y sky130_fd_pr__cap_mim_m3_1 l=2 w=2
X321 VOUT+ cap_res_Y sky130_fd_pr__cap_mim_m3_1 l=2 w=2
X322 VOUT+ cap_res_Y sky130_fd_pr__cap_mim_m3_1 l=2 w=2
X323 VOUT+ cap_res_Y sky130_fd_pr__cap_mim_m3_1 l=2 w=2
X324 GNDA GNDA VDDA GNDA sky130_fd_pr__nfet_01v8 ad=1.2 pd=6.8 as=0.6 ps=3.4 w=3 l=0.15
X325 V_CMFB_S2 X VDDA GNDA sky130_fd_pr__nfet_01v8 ad=0.6 pd=3.4 as=0.6 ps=3.4 w=3 l=0.15
X326 VOUT+ cap_res_Y sky130_fd_pr__cap_mim_m3_1 l=2 w=2
X327 VOUT- cap_res_X sky130_fd_pr__cap_mim_m3_1 l=2 w=2
X328 VOUT+ cap_res_Y sky130_fd_pr__cap_mim_m3_1 l=2 w=2
X329 VOUT+ a_109420_966# GNDA sky130_fd_pr__res_xhigh_po_0p35 l=2.63
X330 V_CMFB_S4 Y VDDA GNDA sky130_fd_pr__nfet_01v8 ad=0.6 pd=3.4 as=0.6 ps=3.4 w=3 l=0.15
X331 V_err_p V_err_gate VDDA VDDA sky130_fd_pr__pfet_01v8 ad=0.1 pd=0.9 as=0.1 ps=0.9 w=0.5 l=0.15
X332 V_err_p V_err_gate VDDA VDDA sky130_fd_pr__pfet_01v8 ad=0.1 pd=0.9 as=0.1 ps=0.9 w=0.5 l=0.15
X333 VOUT- cap_res_X sky130_fd_pr__cap_mim_m3_1 l=2 w=2
X334 VOUT- cap_res_X sky130_fd_pr__cap_mim_m3_1 l=2 w=2
X335 X Vb1 VD1 GNDA sky130_fd_pr__nfet_01v8 ad=0.3 pd=1.9 as=0.3 ps=1.9 w=1.5 l=0.15
X336 a_118390_3958# V_tot GNDA sky130_fd_pr__res_xhigh_po_0p35 l=1.75
X337 V_CMFB_S1 X GNDA VDDA sky130_fd_pr__pfet_01v8 ad=0.4 pd=2.4 as=0.4 ps=2.4 w=2 l=0.15
X338 VD1 VIN- V_source GNDA sky130_fd_pr__nfet_01v8 ad=0.3 pd=1.9 as=0.3 ps=1.9 w=1.5 l=0.15
X339 a_109020_3958# V_CMFB_S3 GNDA sky130_fd_pr__res_xhigh_po_0p35 l=1.75
X340 err_amp_out err_amp_mir GNDA GNDA sky130_fd_pr__nfet_01v8 ad=0.1 pd=0.9 as=0.1 ps=0.9 w=0.5 l=0.15
X341 VOUT+ cap_res_Y sky130_fd_pr__cap_mim_m3_1 l=2 w=2
X342 VOUT+ cap_res_Y sky130_fd_pr__cap_mim_m3_1 l=2 w=2
X343 Y GNDA GNDA GNDA sky130_fd_pr__nfet_01v8 ad=0.3 pd=1.9 as=0.6 ps=3.8 w=1.5 l=0.15
X344 VOUT- cap_res_X sky130_fd_pr__cap_mim_m3_1 l=2 w=2
X345 VOUT- cap_res_X sky130_fd_pr__cap_mim_m3_1 l=2 w=2
X346 VOUT- cap_res_X sky130_fd_pr__cap_mim_m3_1 l=2 w=2
X347 VOUT+ cap_res_Y sky130_fd_pr__cap_mim_m3_1 l=2 w=2
X348 VOUT- cap_res_X sky130_fd_pr__cap_mim_m3_1 l=2 w=2
X349 X Vb2 VD3 VD3 sky130_fd_pr__pfet_01v8 ad=0.7 pd=3.9 as=0.7 ps=3.9 w=3.5 l=0.2
X350 VOUT+ cap_res_Y sky130_fd_pr__cap_mim_m3_1 l=2 w=2
X351 VDDA VDDA V_err_p VDDA sky130_fd_pr__pfet_01v8 ad=0.2 pd=1.8 as=0.1 ps=0.9 w=0.5 l=0.15
X352 VOUT- cap_res_X sky130_fd_pr__cap_mim_m3_1 l=2 w=2
X353 VOUT+ cap_res_Y sky130_fd_pr__cap_mim_m3_1 l=2 w=2
X354 VOUT- cap_res_X sky130_fd_pr__cap_mim_m3_1 l=2 w=2
X355 VOUT- cap_res_X sky130_fd_pr__cap_mim_m3_1 l=2 w=2
X356 VD1 Vb1 X GNDA sky130_fd_pr__nfet_01v8 ad=0.3 pd=1.9 as=0.3 ps=1.9 w=1.5 l=0.15
X357 VOUT- cap_res_X sky130_fd_pr__cap_mim_m3_1 l=2 w=2
X358 GNDA Y V_CMFB_S3 VDDA sky130_fd_pr__pfet_01v8 ad=0.4 pd=2.4 as=0.4 ps=2.4 w=2 l=0.15
X359 GNDA GNDA VOUT- GNDA sky130_fd_pr__nfet_01v8 ad=2.8 pd=14.8 as=1.4 ps=7.4 w=7 l=0.6
X360 GNDA GNDA VD1 GNDA sky130_fd_pr__nfet_01v8 ad=0.6 pd=3.8 as=0.3 ps=1.9 w=1.5 l=0.15
X361 VDDA X VOUT- VDDA sky130_fd_pr__pfet_01v8 ad=1.2 pd=6.4 as=1.2 ps=6.4 w=6 l=0.15
X362 VOUT- cap_res_X sky130_fd_pr__cap_mim_m3_1 l=2 w=2
X363 VOUT- cap_res_X sky130_fd_pr__cap_mim_m3_1 l=2 w=2
X364 V_err_mir_p V_err_amp_ref V_err_gate VDDA sky130_fd_pr__pfet_01v8 ad=0.1 pd=0.9 as=0.1 ps=0.9 w=0.5 l=0.15
X365 V_err_mir_p V_tot V_err_gate VDDA sky130_fd_pr__pfet_01v8 ad=0.1 pd=0.9 as=0.1 ps=0.9 w=0.5 l=0.15
X366 VOUT- cap_res_X sky130_fd_pr__cap_mim_m3_1 l=2 w=2
X367 VOUT- cap_res_X sky130_fd_pr__cap_mim_m3_1 l=2 w=2
X368 GNDA V_tail_gate V_source GNDA sky130_fd_pr__nfet_01v8 ad=0.5 pd=2.9 as=0.5 ps=2.9 w=2.5 l=0.15
X369 GNDA V_tail_gate V_source GNDA sky130_fd_pr__nfet_01v8 ad=0.5 pd=2.9 as=0.5 ps=2.9 w=2.5 l=0.15
X370 VD4 Vb3 VDDA VDDA sky130_fd_pr__pfet_01v8 ad=0.7 pd=3.9 as=0.7 ps=3.9 w=3.5 l=0.2
X371 VOUT- cap_res_X sky130_fd_pr__cap_mim_m3_1 l=2 w=2
X372 VOUT- cap_res_X sky130_fd_pr__cap_mim_m3_1 l=2 w=2
X373 VOUT- cap_res_X sky130_fd_pr__cap_mim_m3_1 l=2 w=2
X374 X Vb2 VD3 VD3 sky130_fd_pr__pfet_01v8 ad=0.7 pd=3.9 as=0.7 ps=3.9 w=3.5 l=0.2
X375 VOUT- cap_res_X sky130_fd_pr__cap_mim_m3_1 l=2 w=2
X376 VOUT- cap_res_X sky130_fd_pr__cap_mim_m3_1 l=2 w=2
X377 VOUT- cap_res_X sky130_fd_pr__cap_mim_m3_1 l=2 w=2
X378 VD4 VDDA VDDA VDDA sky130_fd_pr__pfet_01v8 ad=0.7 pd=3.9 as=1.4 ps=7.8 w=3.5 l=0.2
X379 VOUT- cap_res_X sky130_fd_pr__cap_mim_m3_1 l=2 w=2
X380 V_CMFB_S2 X VDDA GNDA sky130_fd_pr__nfet_01v8 ad=0.6 pd=3.4 as=0.6 ps=3.4 w=3 l=0.15
X381 V_err_mir_p V_err_gate VDDA VDDA sky130_fd_pr__pfet_01v8 ad=0.1 pd=0.9 as=0.1 ps=0.9 w=0.5 l=0.15
X382 VOUT- cap_res_X sky130_fd_pr__cap_mim_m3_1 l=2 w=2
X383 V_err_p V_err_amp_ref err_amp_out VDDA sky130_fd_pr__pfet_01v8 ad=0.1 pd=0.9 as=0.1 ps=0.9 w=0.5 l=0.15
X384 X GNDA GNDA GNDA sky130_fd_pr__nfet_01v8 ad=0.3 pd=1.9 as=0.6 ps=3.8 w=1.5 l=0.15
X385 VOUT+ cap_res_Y sky130_fd_pr__cap_mim_m3_1 l=2 w=2
X386 GNDA V_b_2nd_stage VOUT+ GNDA sky130_fd_pr__nfet_01v8 ad=1.4 pd=7.4 as=1.4 ps=7.4 w=7 l=0.6
X387 VOUT+ Y VDDA VDDA sky130_fd_pr__pfet_01v8 ad=1.2 pd=6.4 as=1.2 ps=6.4 w=6 l=0.15
X388 VOUT+ cap_res_Y sky130_fd_pr__cap_mim_m3_1 l=2 w=2
X389 VOUT- cap_res_X sky130_fd_pr__cap_mim_m3_1 l=2 w=2
X390 VD2 GNDA GNDA GNDA sky130_fd_pr__nfet_01v8 ad=0.3 pd=1.9 as=0.6 ps=3.8 w=1.5 l=0.15
X391 VD4 Vb2 Y VD4 sky130_fd_pr__pfet_01v8 ad=0.7 pd=3.9 as=0.7 ps=3.9 w=3.5 l=0.2
X392 a_118390_3958# V_CMFB_S1 GNDA sky130_fd_pr__res_xhigh_po_0p35 l=1.75
X393 VOUT+ cap_res_Y sky130_fd_pr__cap_mim_m3_1 l=2 w=2
X394 VOUT- cap_res_X sky130_fd_pr__cap_mim_m3_1 l=2 w=2
X395 err_amp_mir err_amp_mir GNDA GNDA sky130_fd_pr__nfet_01v8 ad=0.1 pd=0.9 as=0.1 ps=0.9 w=0.5 l=0.15
X396 V_source err_amp_out GNDA GNDA sky130_fd_pr__nfet_01v8 ad=0.5 pd=2.9 as=0.5 ps=2.9 w=2.5 l=0.15
X397 err_amp_mir err_amp_mir GNDA GNDA sky130_fd_pr__nfet_01v8 ad=0.1 pd=0.9 as=0.1 ps=0.9 w=0.5 l=0.15
X398 VOUT- cap_res_X sky130_fd_pr__cap_mim_m3_1 l=2 w=2
X399 VOUT- cap_res_X sky130_fd_pr__cap_mim_m3_1 l=2 w=2