* PEX produced on Wed Jul 16 10:17:22 AM CEST 2025 using /foss/tools/osic-multitool/iic-pex.sh with m=3 and s=1
* NGSPICE file created from bgr_9.ext - technology: sky130A

.subckt bgr_9 VDDA ERR_AMP_REF V_CMFB_S3 VB1_CUR_BIAS TAIL_CUR_MIR_BIAS V_CMFB_S1
+ ERR_AMP_CUR_BIAS VB3_CUR_BIAS V_CMFB_S4 V_CMFB_S2 VB2_CUR_BIAS GNDA
X0 1st_Vout_2.t11 cap_res2.t20 sky130_fd_pr__cap_mim_m3_1 l=2 w=2
X1 TAIL_CUR_MIR_BIAS.t3 PFET_GATE_10uA.t10 VDDA.t114 VDDA.t113 sky130_fd_pr__pfet_01v8 ad=0.4 pd=2.4 as=0.4 ps=2.4 w=2 l=0.15
X2 GNDA.t79 NFET_GATE_10uA.t5 V_CMFB_S2.t1 GNDA.t78 sky130_fd_pr__nfet_01v8 ad=0.2 pd=1.4 as=0.2 ps=1.4 w=1 l=0.15
X3 VB1_CUR_BIAS.t0 PFET_GATE_10uA.t11 VDDA.t112 VDDA.t111 sky130_fd_pr__pfet_01v8 ad=0.4 pd=2.4 as=0.4 ps=2.4 w=2 l=0.15
X4 V_mir2.t14 V_mir2.t13 VDDA.t193 VDDA.t192 sky130_fd_pr__pfet_01v8 ad=0.2 pd=1.4 as=0.2 ps=1.4 w=1 l=0.2
X5 VB2_CUR_BIAS.t5 NFET_GATE_10uA.t6 GNDA.t77 GNDA.t76 sky130_fd_pr__nfet_01v8 ad=0.2 pd=1.4 as=0.2 ps=1.4 w=1 l=0.15
X6 a_38570_n6504.t1 a_38690_n7778.t1 GNDA.t28 sky130_fd_pr__res_xhigh_po_0p35 l=4.33
X7 GNDA.t112 GNDA.t110 V_CMFB_S2.t0 GNDA.t111 sky130_fd_pr__nfet_01v8 ad=0.4 pd=2.8 as=0.2 ps=1.4 w=1 l=0.15
X8 1st_Vout_1.t11 cap_res1.t20 sky130_fd_pr__cap_mim_m3_1 l=2 w=2
X9 GNDA.t75 NFET_GATE_10uA.t7 V_CMFB_S4.t2 GNDA.t74 sky130_fd_pr__nfet_01v8 ad=0.2 pd=1.4 as=0.2 ps=1.4 w=1 l=0.15
X10 V_p_1.t8 Vin+.t6 1st_Vout_1.t1 GNDA.t2 sky130_fd_pr__nfet_01v8 ad=0.1 pd=0.9 as=0.1 ps=0.9 w=0.5 l=0.2
X11 VB2_CUR_BIAS.t4 NFET_GATE_10uA.t8 GNDA.t73 GNDA.t72 sky130_fd_pr__nfet_01v8 ad=0.2 pd=1.4 as=0.2 ps=1.4 w=1 l=0.15
X12 V_p_2.t6 ERR_AMP_REF.t7 V_mir2.t16 GNDA.t83 sky130_fd_pr__nfet_01v8 ad=0.1 pd=0.9 as=0.1 ps=0.9 w=0.5 l=0.2
X13 1st_Vout_1.t12 cap_res1.t19 sky130_fd_pr__cap_mim_m3_1 l=2 w=2
X14 GNDA.t6 START_UP_NFET1.t0 START_UP_NFET1.t1 GNDA.t5 sky130_fd_pr__nfet_01v8 ad=0.4 pd=2.8 as=0.2 ps=1.4 w=1 l=10
X15 VDDA.t170 VDDA.t168 V_CMFB_S1.t5 VDDA.t169 sky130_fd_pr__pfet_01v8 ad=0.4 pd=2.8 as=0.2 ps=1.4 w=1 l=0.15
X16 V_TOP.t2 START_UP.t6 Vin-.t4 VDDA.t57 sky130_fd_pr__pfet_01v8 ad=0.2 pd=1.4 as=0.2 ps=1.4 w=1 l=0.15
X17 V_CMFB_S3.t5 VDDA.t165 VDDA.t167 VDDA.t166 sky130_fd_pr__pfet_01v8 ad=0.2 pd=1.4 as=0.4 ps=2.8 w=1 l=0.15
X18 GNDA.t71 NFET_GATE_10uA.t9 VB3_CUR_BIAS.t4 GNDA.t70 sky130_fd_pr__nfet_01v8 ad=0.2 pd=1.4 as=0.2 ps=1.4 w=1 l=0.15
X19 VB3_CUR_BIAS.t3 NFET_GATE_10uA.t10 GNDA.t69 GNDA.t68 sky130_fd_pr__nfet_01v8 ad=0.2 pd=1.4 as=0.2 ps=1.4 w=1 l=0.15
X20 NFET_GATE_10uA.t0 GNDA.t107 GNDA.t109 GNDA.t108 sky130_fd_pr__nfet_01v8 ad=0.2 pd=1.4 as=0.4 ps=2.8 w=1 l=0.15
X21 1st_Vout_1.t13 cap_res1.t18 sky130_fd_pr__cap_mim_m3_1 l=2 w=2
X22 GNDA.t67 NFET_GATE_10uA.t3 NFET_GATE_10uA.t4 GNDA.t66 sky130_fd_pr__nfet_01v8 ad=0.2 pd=1.4 as=0.2 ps=1.4 w=1 l=0.15
X23 1st_Vout_2.t10 V_mir2.t17 VDDA.t188 VDDA.t187 sky130_fd_pr__pfet_01v8 ad=0.2 pd=1.4 as=0.2 ps=1.4 w=1 l=0.2
X24 V_p_1.t1 Vin-.t8 V_mir1.t16 GNDA.t13 sky130_fd_pr__nfet_01v8 ad=0.1 pd=0.9 as=0.1 ps=0.9 w=0.5 l=0.2
X25 V_p_2.t10 VDDA.t212 GNDA.t39 GNDA.t38 sky130_fd_pr__nfet_01v8 ad=1 pd=5.8 as=1 ps=5.8 w=2.5 l=5
X26 1st_Vout_2.t12 cap_res2.t19 sky130_fd_pr__cap_mim_m3_1 l=2 w=2
X27 V_CUR_REF_REG.t0 a_32320_n7778.t0 GNDA.t10 sky130_fd_pr__res_xhigh_po_0p35 l=4
X28 VB2_CUR_BIAS.t7 GNDA.t104 GNDA.t106 GNDA.t105 sky130_fd_pr__nfet_01v8 ad=0.2 pd=1.4 as=0.4 ps=2.8 w=1 l=0.15
X29 1st_Vout_2.t13 cap_res2.t18 sky130_fd_pr__cap_mim_m3_1 l=2 w=2
X30 V_CUR_REF_REG.t1 PFET_GATE_10uA.t12 VDDA.t110 VDDA.t109 sky130_fd_pr__pfet_01v8 ad=0.2 pd=1.4 as=0.2 ps=1.4 w=1 l=0.15
X31 1st_Vout_2.t14 cap_res2.t17 sky130_fd_pr__cap_mim_m3_1 l=2 w=2
X32 VDDA.t80 V_TOP.t14 ERR_AMP_REF.t3 VDDA.t79 sky130_fd_pr__pfet_01v8 ad=0.6 pd=3.4 as=0.6 ps=3.4 w=3 l=0.5
X33 1st_Vout_2.t15 cap_res2.t16 sky130_fd_pr__cap_mim_m3_1 l=2 w=2
X34 VDDA.t108 PFET_GATE_10uA.t13 V_CMFB_S1.t3 VDDA.t107 sky130_fd_pr__pfet_01v8 ad=0.2 pd=1.4 as=0.2 ps=1.4 w=1 l=0.15
X35 1st_Vout_2.t16 cap_res2.t15 sky130_fd_pr__cap_mim_m3_1 l=2 w=2
X36 VB2_CUR_BIAS.t3 NFET_GATE_10uA.t11 GNDA.t65 GNDA.t64 sky130_fd_pr__nfet_01v8 ad=0.2 pd=1.4 as=0.2 ps=1.4 w=1 l=0.15
X37 1st_Vout_1.t14 cap_res1.t17 sky130_fd_pr__cap_mim_m3_1 l=2 w=2
X38 1st_Vout_2.t17 cap_res2.t14 sky130_fd_pr__cap_mim_m3_1 l=2 w=2
X39 1st_Vout_2.t18 cap_res2.t13 sky130_fd_pr__cap_mim_m3_1 l=2 w=2
X40 1st_Vout_1.t15 cap_res1.t16 sky130_fd_pr__cap_mim_m3_1 l=2 w=2
X41 VDDA.t34 V_mir1.t10 V_mir1.t11 VDDA.t33 sky130_fd_pr__pfet_01v8 ad=0.2 pd=1.4 as=0.2 ps=1.4 w=1 l=0.2
X42 Vin+.t2 V_TOP.t15 VDDA.t40 VDDA.t39 sky130_fd_pr__pfet_01v8 ad=0.6 pd=3.4 as=0.6 ps=3.4 w=3 l=0.5
X43 1st_Vout_1.t16 cap_res1.t15 sky130_fd_pr__cap_mim_m3_1 l=2 w=2
X44 V_TOP.t16 VDDA.t75 sky130_fd_pr__cap_mim_m3_1 l=2 w=2
X45 V_mir1.t15 Vin-.t9 V_p_1.t0 GNDA.t11 sky130_fd_pr__nfet_01v8 ad=0.1 pd=0.9 as=0.1 ps=0.9 w=0.5 l=0.2
X46 1st_Vout_1.t17 cap_res1.t14 sky130_fd_pr__cap_mim_m3_1 l=2 w=2
X47 1st_Vout_1.t18 cap_res1.t13 sky130_fd_pr__cap_mim_m3_1 l=2 w=2
X48 NFET_GATE_10uA.t2 VDDA.t162 VDDA.t164 VDDA.t163 sky130_fd_pr__pfet_01v8 ad=0.2 pd=1.4 as=0.4 ps=2.8 w=1 l=0.15
X49 VDDA.t205 V_mir2.t11 V_mir2.t12 VDDA.t204 sky130_fd_pr__pfet_01v8 ad=0.2 pd=1.4 as=0.2 ps=1.4 w=1 l=0.2
X50 V_TOP.t17 VDDA.t15 sky130_fd_pr__cap_mim_m3_1 l=2 w=2
X51 ERR_AMP_REF.t5 VDDA.t159 VDDA.t161 VDDA.t160 sky130_fd_pr__pfet_01v8 ad=0.6 pd=3.4 as=1.2 ps=6.8 w=3 l=0.5
X52 V_mir1.t14 Vin-.t10 V_p_1.t3 GNDA.t25 sky130_fd_pr__nfet_01v8 ad=0.1 pd=0.9 as=0.1 ps=0.9 w=0.5 l=0.2
X53 1st_Vout_1.t10 V_mir1.t17 VDDA.t210 VDDA.t209 sky130_fd_pr__pfet_01v8 ad=0.2 pd=1.4 as=0.2 ps=1.4 w=1 l=0.2
X54 V_TOP.t18 VDDA.t78 sky130_fd_pr__cap_mim_m3_1 l=2 w=2
X55 1st_Vout_2.t19 cap_res2.t12 sky130_fd_pr__cap_mim_m3_1 l=2 w=2
X56 V_CMFB_S3.t3 PFET_GATE_10uA.t14 VDDA.t106 VDDA.t105 sky130_fd_pr__pfet_01v8 ad=0.2 pd=1.4 as=0.2 ps=1.4 w=1 l=0.15
X57 VDDA.t67 V_TOP.t19 Vin+.t3 VDDA.t66 sky130_fd_pr__pfet_01v8 ad=0.6 pd=3.4 as=0.6 ps=3.4 w=3 l=0.5
X58 V_TOP.t20 VDDA.t51 sky130_fd_pr__cap_mim_m3_1 l=2 w=2
X59 sky130_fd_pr__rf_pnp_05v5_W3p40L3p40_25.Emitter.t0 Vin+.t1 GNDA.t9 sky130_fd_pr__res_xhigh_po_0p35 l=2.3
X60 PFET_GATE_10uA.t8 1st_Vout_2.t20 VDDA.t182 VDDA.t181 sky130_fd_pr__pfet_01v8 ad=0.2 pd=1.4 as=0.2 ps=1.4 w=1 l=0.2
X61 1st_Vout_1.t7 Vin+.t7 V_p_1.t7 GNDA.t24 sky130_fd_pr__nfet_01v8 ad=0.1 pd=0.9 as=0.1 ps=0.9 w=0.5 l=0.2
X62 VDDA.t7 V_mir2.t18 1st_Vout_2.t3 VDDA.t6 sky130_fd_pr__pfet_01v8 ad=0.2 pd=1.4 as=0.2 ps=1.4 w=1 l=0.2
X63 GNDA.t103 GNDA.t101 VB3_CUR_BIAS.t5 GNDA.t102 sky130_fd_pr__nfet_01v8 ad=0.4 pd=2.8 as=0.2 ps=1.4 w=1 l=0.15
X64 VDDA.t180 1st_Vout_2.t21 PFET_GATE_10uA.t6 VDDA.t179 sky130_fd_pr__pfet_01v8 ad=0.2 pd=1.4 as=0.2 ps=1.4 w=1 l=0.2
X65 V_p_1.t6 Vin+.t8 1st_Vout_1.t5 GNDA.t16 sky130_fd_pr__nfet_01v8 ad=0.1 pd=0.9 as=0.2 ps=1.8 w=0.5 l=0.2
X66 V_CMFB_S3.t2 PFET_GATE_10uA.t15 VDDA.t104 VDDA.t103 sky130_fd_pr__pfet_01v8 ad=0.2 pd=1.4 as=0.2 ps=1.4 w=1 l=0.15
X67 VDDA.t158 VDDA.t156 V_TOP.t6 VDDA.t157 sky130_fd_pr__pfet_01v8 ad=0.4 pd=2.8 as=0.2 ps=1.4 w=1 l=0.2
X68 V_CMFB_S2.t3 NFET_GATE_10uA.t12 GNDA.t63 GNDA.t62 sky130_fd_pr__nfet_01v8 ad=0.2 pd=1.4 as=0.2 ps=1.4 w=1 l=0.15
X69 V_CMFB_S2.t2 NFET_GATE_10uA.t13 GNDA.t61 GNDA.t60 sky130_fd_pr__nfet_01v8 ad=0.2 pd=1.4 as=0.2 ps=1.4 w=1 l=0.15
X70 V_CMFB_S1.t2 PFET_GATE_10uA.t16 VDDA.t102 VDDA.t101 sky130_fd_pr__pfet_01v8 ad=0.2 pd=1.4 as=0.2 ps=1.4 w=1 l=0.15
X71 Vin+.t4 a_38040_n7928.t1 GNDA.t12 sky130_fd_pr__res_xhigh_po_0p35 l=6
X72 VDDA.t100 PFET_GATE_10uA.t17 TAIL_CUR_MIR_BIAS.t2 VDDA.t99 sky130_fd_pr__pfet_01v8 ad=0.4 pd=2.4 as=0.4 ps=2.4 w=2 l=0.15
X73 1st_Vout_1.t8 V_mir1.t18 VDDA.t184 VDDA.t183 sky130_fd_pr__pfet_01v8 ad=0.2 pd=1.4 as=0.2 ps=1.4 w=1 l=0.2
X74 V_mir1.t9 V_mir1.t8 VDDA.t197 VDDA.t196 sky130_fd_pr__pfet_01v8 ad=0.2 pd=1.4 as=0.2 ps=1.4 w=1 l=0.2
X75 V_TOP.t21 VDDA.t22 sky130_fd_pr__cap_mim_m3_1 l=2 w=2
X76 GNDA.t37 VDDA.t213 PFET_GATE_10uA.t1 GNDA.t15 sky130_fd_pr__nfet_01v8 ad=1 pd=5.8 as=1 ps=5.8 w=2.5 l=5
X77 VDDA.t26 1st_Vout_1.t19 V_TOP.t13 VDDA.t25 sky130_fd_pr__pfet_01v8 ad=0.2 pd=1.4 as=0.2 ps=1.4 w=1 l=0.2
X78 PFET_GATE_10uA.t4 1st_Vout_2.t22 VDDA.t178 VDDA.t177 sky130_fd_pr__pfet_01v8 ad=0.2 pd=1.4 as=0.2 ps=1.4 w=1 l=0.2
X79 V_p_2.t5 ERR_AMP_REF.t8 V_mir2.t1 GNDA.t15 sky130_fd_pr__nfet_01v8 ad=0.1 pd=0.9 as=0.2 ps=1.8 w=0.5 l=0.2
X80 V_TOP.t7 VDDA.t214 GNDA.t36 GNDA.t35 sky130_fd_pr__nfet_01v8 ad=1 pd=5.8 as=1.01 ps=6.15 w=2.5 l=5
X81 V_TOP.t22 VDDA.t41 sky130_fd_pr__cap_mim_m3_1 l=2 w=2
X82 VB3_CUR_BIAS.t2 NFET_GATE_10uA.t14 GNDA.t59 GNDA.t58 sky130_fd_pr__nfet_01v8 ad=0.2 pd=1.4 as=0.2 ps=1.4 w=1 l=0.15
X83 GNDA.t57 NFET_GATE_10uA.t15 ERR_AMP_CUR_BIAS.t1 GNDA.t56 sky130_fd_pr__nfet_01v8 ad=0.2 pd=1.4 as=0.2 ps=1.4 w=1 l=0.15
X84 VDDA.t36 V_mir1.t19 1st_Vout_1.t4 VDDA.t35 sky130_fd_pr__pfet_01v8 ad=0.2 pd=1.4 as=0.2 ps=1.4 w=1 l=0.2
X85 V_p_1.t5 Vin+.t9 1st_Vout_1.t6 GNDA.t17 sky130_fd_pr__nfet_01v8 ad=0.1 pd=0.9 as=0.1 ps=0.9 w=0.5 l=0.2
X86 1st_Vout_2.t23 cap_res2.t11 sky130_fd_pr__cap_mim_m3_1 l=2 w=2
X87 1st_Vout_2.t24 cap_res2.t10 sky130_fd_pr__cap_mim_m3_1 l=2 w=2
X88 V_CMFB_S1.t4 VDDA.t153 VDDA.t155 VDDA.t154 sky130_fd_pr__pfet_01v8 ad=0.2 pd=1.4 as=0.4 ps=2.8 w=1 l=0.15
X89 VDDA.t9 V_mir2.t19 1st_Vout_2.t4 VDDA.t8 sky130_fd_pr__pfet_01v8 ad=0.2 pd=1.4 as=0.2 ps=1.4 w=1 l=0.2
X90 1st_Vout_2.t25 cap_res2.t9 sky130_fd_pr__cap_mim_m3_1 l=2 w=2
X91 VDDA.t176 1st_Vout_2.t26 PFET_GATE_10uA.t9 VDDA.t175 sky130_fd_pr__pfet_01v8 ad=0.2 pd=1.4 as=0.2 ps=1.4 w=1 l=0.2
X92 V_p_2.t7 V_CUR_REF_REG.t3 1st_Vout_2.t7 GNDA.t26 sky130_fd_pr__nfet_01v8 ad=0.1 pd=0.9 as=0.1 ps=0.9 w=0.5 l=0.2
X93 VDDA.t98 PFET_GATE_10uA.t18 TAIL_CUR_MIR_BIAS.t1 VDDA.t97 sky130_fd_pr__pfet_01v8 ad=0.4 pd=2.4 as=0.4 ps=2.4 w=2 l=0.15
X94 1st_Vout_1.t20 cap_res1.t12 sky130_fd_pr__cap_mim_m3_1 l=2 w=2
X95 VDDA.t152 VDDA.t149 VDDA.t151 VDDA.t150 sky130_fd_pr__pfet_01v8 ad=0.8 pd=4.8 as=0 ps=0 w=2 l=0.15
X96 V_TOP.t5 VDDA.t146 VDDA.t148 VDDA.t147 sky130_fd_pr__pfet_01v8 ad=0.2 pd=1.4 as=0.4 ps=2.8 w=1 l=0.2
X97 1st_Vout_2.t27 cap_res2.t8 sky130_fd_pr__cap_mim_m3_1 l=2 w=2
X98 VDDA.t145 VDDA.t143 VB1_CUR_BIAS.t1 VDDA.t144 sky130_fd_pr__pfet_01v8 ad=0.8 pd=4.8 as=0.4 ps=2.4 w=2 l=0.15
X99 1st_Vout_1.t21 cap_res1.t11 sky130_fd_pr__cap_mim_m3_1 l=2 w=2
X100 V_TOP.t23 VDDA.t30 sky130_fd_pr__cap_mim_m3_1 l=2 w=2
X101 V_CMFB_S4.t1 NFET_GATE_10uA.t16 GNDA.t55 GNDA.t54 sky130_fd_pr__nfet_01v8 ad=0.2 pd=1.4 as=0.2 ps=1.4 w=1 l=0.15
X102 V_mir2.t10 V_mir2.t9 VDDA.t69 VDDA.t68 sky130_fd_pr__pfet_01v8 ad=0.2 pd=1.4 as=0.2 ps=1.4 w=1 l=0.2
X103 1st_Vout_1.t22 cap_res1.t10 sky130_fd_pr__cap_mim_m3_1 l=2 w=2
X104 GNDA.t53 NFET_GATE_10uA.t17 V_CMFB_S4.t0 GNDA.t52 sky130_fd_pr__nfet_01v8 ad=0.2 pd=1.4 as=0.2 ps=1.4 w=1 l=0.15
X105 1st_Vout_2.t5 V_mir2.t20 VDDA.t20 VDDA.t19 sky130_fd_pr__pfet_01v8 ad=0.2 pd=1.4 as=0.2 ps=1.4 w=1 l=0.2
X106 1st_Vout_1.t23 cap_res1.t9 sky130_fd_pr__cap_mim_m3_1 l=2 w=2
X107 GNDA.t85 GNDA.t98 sky130_fd_pr__rf_pnp_05v5_W3p40L3p40_25.Emitter.t8 sky130_fd_pr__pnp_05v5_W3p40L3p40
**devattr s=462400,2720
X108 V_TOP.t24 VDDA.t27 sky130_fd_pr__cap_mim_m3_1 l=2 w=2
X109 1st_Vout_2.t28 cap_res2.t7 sky130_fd_pr__cap_mim_m3_1 l=2 w=2
X110 Vin-.t0 a_32970_n7928.t0 GNDA.t4 sky130_fd_pr__res_xhigh_po_0p35 l=6
X111 GNDA.t85 GNDA.t99 sky130_fd_pr__rf_pnp_05v5_W3p40L3p40_25.Emitter.t7 sky130_fd_pr__pnp_05v5_W3p40L3p40
**devattr s=462400,2720
X112 VDDA.t142 VDDA.t140 V_TOP.t4 VDDA.t141 sky130_fd_pr__pfet_01v8 ad=0.45 pd=2.9 as=0.2 ps=1.4 w=1 l=0.15
X113 VDDA.t208 V_TOP.t25 Vin-.t6 VDDA.t207 sky130_fd_pr__pfet_01v8 ad=0.6 pd=3.4 as=0.6 ps=3.4 w=3 l=0.5
X114 V_TOP.t26 VDDA.t16 sky130_fd_pr__cap_mim_m3_1 l=2 w=2
X115 VDDA.t139 VDDA.t136 VDDA.t138 VDDA.t137 sky130_fd_pr__pfet_01v8 ad=0.8 pd=4.8 as=0 ps=0 w=2 l=0.15
X116 a_32440_n6570.t1 a_32320_n7778.t1 GNDA.t30 sky130_fd_pr__res_xhigh_po_0p35 l=4
X117 GNDA.t85 GNDA.t100 sky130_fd_pr__rf_pnp_05v5_W3p40L3p40_25.Emitter.t6 sky130_fd_pr__pnp_05v5_W3p40L3p40
**devattr s=462400,2720
X118 ERR_AMP_REF.t6 V_TOP.t27 VDDA.t195 VDDA.t194 sky130_fd_pr__pfet_01v8 ad=0.6 pd=3.4 as=0.6 ps=3.4 w=3 l=0.5
X119 VDDA.t5 V_mir1.t20 1st_Vout_1.t0 VDDA.t4 sky130_fd_pr__pfet_01v8 ad=0.2 pd=1.4 as=0.2 ps=1.4 w=1 l=0.2
X120 1st_Vout_2.t9 V_CUR_REF_REG.t4 V_p_2.t9 GNDA.t32 sky130_fd_pr__nfet_01v8 ad=0.1 pd=0.9 as=0.1 ps=0.9 w=0.5 l=0.2
X121 VDDA.t84 V_mir1.t6 V_mir1.t7 VDDA.t83 sky130_fd_pr__pfet_01v8 ad=0.2 pd=1.4 as=0.2 ps=1.4 w=1 l=0.2
X122 Vin+.t5 V_TOP.t28 VDDA.t201 VDDA.t200 sky130_fd_pr__pfet_01v8 ad=0.6 pd=3.4 as=0.6 ps=3.4 w=3 l=0.5
X123 V_mir1.t13 Vin-.t11 V_p_1.t10 GNDA.t35 sky130_fd_pr__nfet_01v8 ad=0.2 pd=1.8 as=0.1 ps=0.9 w=0.5 l=0.2
X124 V_TOP.t29 VDDA.t206 sky130_fd_pr__cap_mim_m3_1 l=2 w=2
X125 a_38570_n6504.t0 GNDA.t29 GNDA.t28 sky130_fd_pr__res_xhigh_po_0p35 l=4.33
X126 a_33090_n6320.t0 GNDA.t8 GNDA.t7 sky130_fd_pr__res_xhigh_po_0p35 l=6
X127 VDDA.t135 VDDA.t133 V_CUR_REF_REG.t2 VDDA.t134 sky130_fd_pr__pfet_01v8 ad=0.4 pd=2.8 as=0.2 ps=1.4 w=1 l=0.15
X128 V_mir1.t5 V_mir1.t4 VDDA.t43 VDDA.t42 sky130_fd_pr__pfet_01v8 ad=0.2 pd=1.4 as=0.2 ps=1.4 w=1 l=0.2
X129 VDDA.t132 VDDA.t130 PFET_GATE_10uA.t2 VDDA.t131 sky130_fd_pr__pfet_01v8 ad=0.4 pd=2.8 as=0.2 ps=1.4 w=1 l=0.2
X130 GNDA.t34 VDDA.t215 V_p_1.t9 GNDA.t33 sky130_fd_pr__nfet_01v8 ad=1.01 pd=6.15 as=1 ps=5.8 w=2.5 l=5
X131 V_CMFB_S1.t1 PFET_GATE_10uA.t19 VDDA.t96 VDDA.t95 sky130_fd_pr__pfet_01v8 ad=0.2 pd=1.4 as=0.2 ps=1.4 w=1 l=0.15
X132 Vin-.t5 START_UP.t7 V_TOP.t1 VDDA.t52 sky130_fd_pr__pfet_01v8 ad=0.2 pd=1.4 as=0.2 ps=1.4 w=1 l=0.15
X133 V_TOP.t12 1st_Vout_1.t24 VDDA.t199 VDDA.t198 sky130_fd_pr__pfet_01v8 ad=0.2 pd=1.4 as=0.2 ps=1.4 w=1 l=0.2
X134 V_mir2.t15 ERR_AMP_REF.t9 V_p_2.t4 GNDA.t81 sky130_fd_pr__nfet_01v8 ad=0.1 pd=0.9 as=0.1 ps=0.9 w=0.5 l=0.2
X135 Vin-.t2 V_TOP.t30 VDDA.t45 VDDA.t44 sky130_fd_pr__pfet_01v8 ad=0.6 pd=3.4 as=0.6 ps=3.4 w=3 l=0.5
X136 a_37920_n6320.t1 GNDA.t82 GNDA.t12 sky130_fd_pr__res_xhigh_po_0p35 l=6
X137 V_mir2.t8 V_mir2.t7 VDDA.t190 VDDA.t189 sky130_fd_pr__pfet_01v8 ad=0.2 pd=1.4 as=0.2 ps=1.4 w=1 l=0.2
X138 PFET_GATE_10uA.t0 cap_res2.t0 GNDA.t22 sky130_fd_pr__res_high_po_0p35 l=2.05
X139 VDDA.t50 V_TOP.t31 START_UP.t0 VDDA.t49 sky130_fd_pr__pfet_01v8 ad=0.6 pd=3.4 as=0.6 ps=3.4 w=3 l=0.5
X140 1st_Vout_2.t6 V_mir2.t21 VDDA.t54 VDDA.t53 sky130_fd_pr__pfet_01v8 ad=0.2 pd=1.4 as=0.2 ps=1.4 w=1 l=0.2
X141 V_TOP.t32 VDDA.t191 sky130_fd_pr__cap_mim_m3_1 l=2 w=2
X142 VDDA.t174 1st_Vout_2.t29 PFET_GATE_10uA.t5 VDDA.t173 sky130_fd_pr__pfet_01v8 ad=0.2 pd=1.4 as=0.2 ps=1.4 w=1 l=0.2
X143 V_TOP.t0 cap_res1.t0 GNDA.t3 sky130_fd_pr__res_high_po_0p35 l=2.05
X144 V_TOP.t33 VDDA.t14 sky130_fd_pr__cap_mim_m3_1 l=2 w=2
X145 VDDA.t3 V_TOP.t34 ERR_AMP_REF.t0 VDDA.t2 sky130_fd_pr__pfet_01v8 ad=0.6 pd=3.4 as=0.6 ps=3.4 w=3 l=0.5
X146 VDDA.t47 V_mir2.t5 V_mir2.t6 VDDA.t46 sky130_fd_pr__pfet_01v8 ad=0.2 pd=1.4 as=0.2 ps=1.4 w=1 l=0.2
X147 VDDA.t94 PFET_GATE_10uA.t20 NFET_GATE_10uA.t1 VDDA.t93 sky130_fd_pr__pfet_01v8 ad=0.2 pd=1.4 as=0.2 ps=1.4 w=1 l=0.15
X148 V_TOP.t35 VDDA.t13 sky130_fd_pr__cap_mim_m3_1 l=2 w=2
X149 1st_Vout_2.t30 cap_res2.t6 sky130_fd_pr__cap_mim_m3_1 l=2 w=2
X150 GNDA.t51 NFET_GATE_10uA.t18 VB2_CUR_BIAS.t2 GNDA.t50 sky130_fd_pr__nfet_01v8 ad=0.2 pd=1.4 as=0.2 ps=1.4 w=1 l=0.15
X151 V_TOP.t36 VDDA.t21 sky130_fd_pr__cap_mim_m3_1 l=2 w=2
X152 VDDA.t61 V_TOP.t37 START_UP.t2 VDDA.t60 sky130_fd_pr__pfet_01v8 ad=0.6 pd=3.4 as=0.6 ps=3.4 w=3 l=0.5
X153 GNDA.t97 GNDA.t95 VB2_CUR_BIAS.t6 GNDA.t96 sky130_fd_pr__nfet_01v8 ad=0.4 pd=2.8 as=0.2 ps=1.4 w=1 l=0.15
X154 VDDA.t129 VDDA.t127 V_CMFB_S3.t4 VDDA.t128 sky130_fd_pr__pfet_01v8 ad=0.4 pd=2.8 as=0.2 ps=1.4 w=1 l=0.15
X155 START_UP_NFET1.t1 START_UP.t4 START_UP.t5 GNDA.t18 sky130_fd_pr__nfet_01v8 ad=0.2 pd=1.4 as=0.4 ps=2.8 w=1 l=10
X156 1st_Vout_1.t25 cap_res1.t8 sky130_fd_pr__cap_mim_m3_1 l=2 w=2
X157 PFET_GATE_10uA.t3 VDDA.t124 VDDA.t126 VDDA.t125 sky130_fd_pr__pfet_01v8 ad=0.2 pd=1.4 as=0.4 ps=2.8 w=1 l=0.2
X158 1st_Vout_2.t31 cap_res2.t5 sky130_fd_pr__cap_mim_m3_1 l=2 w=2
X159 V_p_1.t2 Vin-.t12 V_mir1.t12 GNDA.t19 sky130_fd_pr__nfet_01v8 ad=0.1 pd=0.9 as=0.1 ps=0.9 w=0.5 l=0.2
X160 V_p_2.t1 V_CUR_REF_REG.t5 1st_Vout_2.t2 GNDA.t1 sky130_fd_pr__nfet_01v8 ad=0.1 pd=0.9 as=0.1 ps=0.9 w=0.5 l=0.2
X161 START_UP.t1 V_TOP.t38 VDDA.t56 VDDA.t55 sky130_fd_pr__pfet_01v8 ad=0.6 pd=3.4 as=0.6 ps=3.4 w=3 l=0.5
X162 1st_Vout_1.t26 cap_res1.t7 sky130_fd_pr__cap_mim_m3_1 l=2 w=2
X163 V_TOP.t39 VDDA.t74 sky130_fd_pr__cap_mim_m3_1 l=2 w=2
X164 VB3_CUR_BIAS.t1 NFET_GATE_10uA.t19 GNDA.t49 GNDA.t48 sky130_fd_pr__nfet_01v8 ad=0.2 pd=1.4 as=0.2 ps=1.4 w=1 l=0.15
X165 1st_Vout_1.t27 cap_res1.t6 sky130_fd_pr__cap_mim_m3_1 l=2 w=2
X166 GNDA.t47 NFET_GATE_10uA.t20 VB3_CUR_BIAS.t0 GNDA.t46 sky130_fd_pr__nfet_01v8 ad=0.2 pd=1.4 as=0.2 ps=1.4 w=1 l=0.15
X167 ERR_AMP_CUR_BIAS.t0 NFET_GATE_10uA.t21 GNDA.t45 GNDA.t44 sky130_fd_pr__nfet_01v8 ad=0.2 pd=1.4 as=0.2 ps=1.4 w=1 l=0.15
X168 ERR_AMP_REF.t2 V_TOP.t40 VDDA.t77 VDDA.t76 sky130_fd_pr__pfet_01v8 ad=0.6 pd=3.4 as=0.6 ps=3.4 w=3 l=0.5
X169 V_TOP.t11 1st_Vout_1.t28 VDDA.t186 VDDA.t185 sky130_fd_pr__pfet_01v8 ad=0.2 pd=1.4 as=0.2 ps=1.4 w=1 l=0.2
X170 V_p_2.t3 ERR_AMP_REF.t10 V_mir2.t0 GNDA.t14 sky130_fd_pr__nfet_01v8 ad=0.1 pd=0.9 as=0.1 ps=0.9 w=0.5 l=0.2
X171 1st_Vout_1.t29 cap_res1.t5 sky130_fd_pr__cap_mim_m3_1 l=2 w=2
X172 1st_Vout_1.t3 V_mir1.t21 VDDA.t32 VDDA.t31 sky130_fd_pr__pfet_01v8 ad=0.2 pd=1.4 as=0.2 ps=1.4 w=1 l=0.2
X173 ERR_AMP_REF.t1 a_38690_n7778.t0 GNDA.t28 sky130_fd_pr__res_xhigh_po_0p35 l=4.33
X174 START_UP.t3 V_TOP.t41 VDDA.t65 VDDA.t64 sky130_fd_pr__pfet_01v8 ad=0.6 pd=3.4 as=0.6 ps=3.4 w=3 l=0.5
X175 VDDA.t203 V_mir1.t2 V_mir1.t3 VDDA.t202 sky130_fd_pr__pfet_01v8 ad=0.2 pd=1.4 as=0.2 ps=1.4 w=1 l=0.2
X176 GNDA.t43 NFET_GATE_10uA.t22 VB2_CUR_BIAS.t1 GNDA.t42 sky130_fd_pr__nfet_01v8 ad=0.2 pd=1.4 as=0.2 ps=1.4 w=1 l=0.15
X177 GNDA.t85 GNDA.t93 sky130_fd_pr__rf_pnp_05v5_W3p40L3p40_25.Emitter.t5 sky130_fd_pr__pnp_05v5_W3p40L3p40
**devattr s=462400,2720
X178 VDDA.t92 PFET_GATE_10uA.t21 V_CMFB_S3.t1 VDDA.t91 sky130_fd_pr__pfet_01v8 ad=0.2 pd=1.4 as=0.2 ps=1.4 w=1 l=0.15
X179 GNDA.t85 GNDA.t94 sky130_fd_pr__rf_pnp_05v5_W3p40L3p40_25.Emitter.t4 sky130_fd_pr__pnp_05v5_W3p40L3p40
**devattr s=462400,2720
X180 VDDA.t11 1st_Vout_1.t30 V_TOP.t10 VDDA.t10 sky130_fd_pr__pfet_01v8 ad=0.2 pd=1.4 as=0.2 ps=1.4 w=1 l=0.2
X181 V_TOP.t3 VDDA.t121 VDDA.t123 VDDA.t122 sky130_fd_pr__pfet_01v8 ad=0.2 pd=1.4 as=0.4 ps=2.8 w=1 l=0.15
X182 VDDA.t71 V_mir2.t3 V_mir2.t4 VDDA.t70 sky130_fd_pr__pfet_01v8 ad=0.2 pd=1.4 as=0.2 ps=1.4 w=1 l=0.2
X183 GNDA.t41 NFET_GATE_10uA.t23 VB2_CUR_BIAS.t0 GNDA.t40 sky130_fd_pr__nfet_01v8 ad=0.2 pd=1.4 as=0.2 ps=1.4 w=1 l=0.15
X184 V_CMFB_S4.t3 GNDA.t90 GNDA.t92 GNDA.t91 sky130_fd_pr__nfet_01v8 ad=0.2 pd=1.4 as=0.4 ps=2.8 w=1 l=0.15
X185 VDDA.t73 V_TOP.t42 Vin-.t3 VDDA.t72 sky130_fd_pr__pfet_01v8 ad=0.6 pd=3.4 as=0.6 ps=3.4 w=3 l=0.5
X186 1st_Vout_1.t31 cap_res1.t4 sky130_fd_pr__cap_mim_m3_1 l=2 w=2
X187 VDDA.t1 V_mir2.t22 1st_Vout_2.t0 VDDA.t0 sky130_fd_pr__pfet_01v8 ad=0.2 pd=1.4 as=0.2 ps=1.4 w=1 l=0.2
X188 a_33090_n6320.t1 a_32970_n7928.t1 GNDA.t23 sky130_fd_pr__res_xhigh_po_0p35 l=6
X189 GNDA.t85 GNDA.t89 sky130_fd_pr__rf_pnp_05v5_W3p40L3p40_25.Emitter.t3 sky130_fd_pr__pnp_05v5_W3p40L3p40
**devattr s=462400,2720
X190 VDDA.t120 VDDA.t118 VDDA.t120 VDDA.t119 sky130_fd_pr__pfet_01v8 ad=0.4 pd=2.4 as=0 ps=0 w=2 l=0.15
X191 VDDA.t18 V_TOP.t43 Vin+.t0 VDDA.t17 sky130_fd_pr__pfet_01v8 ad=0.6 pd=3.4 as=0.6 ps=3.4 w=3 l=0.5
X192 PFET_GATE_10uA.t7 1st_Vout_2.t32 VDDA.t172 VDDA.t171 sky130_fd_pr__pfet_01v8 ad=0.2 pd=1.4 as=0.2 ps=1.4 w=1 l=0.2
X193 1st_Vout_2.t33 cap_res2.t4 sky130_fd_pr__cap_mim_m3_1 l=2 w=2
X194 V_TOP.t44 VDDA.t24 sky130_fd_pr__cap_mim_m3_1 l=2 w=2
X195 VDDA.t90 PFET_GATE_10uA.t22 V_CMFB_S3.t0 VDDA.t89 sky130_fd_pr__pfet_01v8 ad=0.2 pd=1.4 as=0.2 ps=1.4 w=1 l=0.15
X196 1st_Vout_2.t34 cap_res2.t3 sky130_fd_pr__cap_mim_m3_1 l=2 w=2
X197 1st_Vout_1.t9 Vin+.t10 V_p_1.t4 GNDA.t80 sky130_fd_pr__nfet_01v8 ad=0.1 pd=0.9 as=0.1 ps=0.9 w=0.5 l=0.2
X198 V_mir2.t2 ERR_AMP_REF.t11 V_p_2.t2 GNDA.t27 sky130_fd_pr__nfet_01v8 ad=0.1 pd=0.9 as=0.1 ps=0.9 w=0.5 l=0.2
X199 VDDA.t88 PFET_GATE_10uA.t23 V_CMFB_S1.t0 VDDA.t87 sky130_fd_pr__pfet_01v8 ad=0.2 pd=1.4 as=0.2 ps=1.4 w=1 l=0.15
X200 V_TOP.t9 1st_Vout_1.t32 VDDA.t59 VDDA.t58 sky130_fd_pr__pfet_01v8 ad=0.2 pd=1.4 as=0.2 ps=1.4 w=1 l=0.2
X201 1st_Vout_2.t35 cap_res2.t2 sky130_fd_pr__cap_mim_m3_1 l=2 w=2
X202 Vin-.t1 V_TOP.t45 VDDA.t38 VDDA.t37 sky130_fd_pr__pfet_01v8 ad=0.6 pd=3.4 as=0.6 ps=3.4 w=3 l=0.5
X203 1st_Vout_1.t33 cap_res1.t3 sky130_fd_pr__cap_mim_m3_1 l=2 w=2
X204 TAIL_CUR_MIR_BIAS.t0 PFET_GATE_10uA.t24 VDDA.t86 VDDA.t85 sky130_fd_pr__pfet_01v8 ad=0.4 pd=2.4 as=0.4 ps=2.4 w=2 l=0.15
X205 GNDA.t85 GNDA.t86 Vin-.t7 sky130_fd_pr__pnp_05v5_W3p40L3p40
**devattr s=462400,2720
X206 1st_Vout_2.t8 V_CUR_REF_REG.t6 V_p_2.t8 GNDA.t31 sky130_fd_pr__nfet_01v8 ad=0.2 pd=1.8 as=0.1 ps=0.9 w=0.5 l=0.2
X207 1st_Vout_1.t34 cap_res1.t2 sky130_fd_pr__cap_mim_m3_1 l=2 w=2
X208 1st_Vout_1.t35 cap_res1.t1 sky130_fd_pr__cap_mim_m3_1 l=2 w=2
X209 a_37920_n6320.t0 a_38040_n7928.t0 GNDA.t12 sky130_fd_pr__res_xhigh_po_0p35 l=6
X210 GNDA.t88 GNDA.t87 sky130_fd_pr__rf_pnp_05v5_W3p40L3p40_25.Emitter.t2 sky130_fd_pr__pnp_05v5_W3p40L3p40
**devattr s=462400,2720
X211 VDDA.t63 1st_Vout_1.t36 V_TOP.t8 VDDA.t62 sky130_fd_pr__pfet_01v8 ad=0.2 pd=1.4 as=0.2 ps=1.4 w=1 l=0.2
X212 V_TOP.t46 VDDA.t12 sky130_fd_pr__cap_mim_m3_1 l=2 w=2
X213 1st_Vout_2.t1 V_CUR_REF_REG.t7 V_p_2.t0 GNDA.t0 sky130_fd_pr__nfet_01v8 ad=0.1 pd=0.9 as=0.1 ps=0.9 w=0.5 l=0.2
X214 VDDA.t117 VDDA.t115 ERR_AMP_REF.t4 VDDA.t116 sky130_fd_pr__pfet_01v8 ad=1.2 pd=6.8 as=0.6 ps=3.4 w=3 l=0.5
X215 VDDA.t29 V_mir1.t22 1st_Vout_1.t2 VDDA.t28 sky130_fd_pr__pfet_01v8 ad=0.2 pd=1.4 as=0.2 ps=1.4 w=1 l=0.2
X216 V_TOP.t47 VDDA.t23 sky130_fd_pr__cap_mim_m3_1 l=2 w=2
X217 GNDA.t85 GNDA.t84 sky130_fd_pr__rf_pnp_05v5_W3p40L3p40_25.Emitter.t1 sky130_fd_pr__pnp_05v5_W3p40L3p40
**devattr s=462400,2720
X218 V_TOP.t48 VDDA.t211 sky130_fd_pr__cap_mim_m3_1 l=2 w=2
X219 1st_Vout_2.t36 cap_res2.t1 sky130_fd_pr__cap_mim_m3_1 l=2 w=2
X220 a_32440_n6570.t0 GNDA.t21 GNDA.t20 sky130_fd_pr__res_xhigh_po_0p35 l=4
X221 V_TOP.t49 VDDA.t48 sky130_fd_pr__cap_mim_m3_1 l=2 w=2
X222 V_mir1.t1 V_mir1.t0 VDDA.t82 VDDA.t81 sky130_fd_pr__pfet_01v8 ad=0.2 pd=1.4 as=0.2 ps=1.4 w=1 l=0.2
R0 1st_Vout_2 1st_Vout_2.t29 354.854
R1 1st_Vout_2.n0 1st_Vout_2.t22 346.8
R2 1st_Vout_2 1st_Vout_2.n11 344.95
R3 1st_Vout_2.n0 1st_Vout_2.n4 344.95
R4 1st_Vout_2.n2 1st_Vout_2.n6 340.45
R5 1st_Vout_2.n8 1st_Vout_2.t8 275.909
R6 1st_Vout_2.n8 1st_Vout_2.n7 227.909
R7 1st_Vout_2.n2 1st_Vout_2.n9 222.034
R8 1st_Vout_2.n5 1st_Vout_2.t20 184.097
R9 1st_Vout_2.n5 1st_Vout_2.t26 184.097
R10 1st_Vout_2.n10 1st_Vout_2.t32 184.097
R11 1st_Vout_2.n10 1st_Vout_2.t21 184.097
R12 1st_Vout_2.n0 1st_Vout_2.n5 166.05
R13 1st_Vout_2 1st_Vout_2.n10 166.05
R14 1st_Vout_2.n0 1st_Vout_2.n3 52.9634
R15 1st_Vout_2.n9 1st_Vout_2.t7 48.0005
R16 1st_Vout_2.n9 1st_Vout_2.t1 48.0005
R17 1st_Vout_2.n7 1st_Vout_2.t2 48.0005
R18 1st_Vout_2.n7 1st_Vout_2.t9 48.0005
R19 1st_Vout_2.n6 1st_Vout_2.t4 39.4005
R20 1st_Vout_2.n6 1st_Vout_2.t5 39.4005
R21 1st_Vout_2.n11 1st_Vout_2.t3 39.4005
R22 1st_Vout_2.n11 1st_Vout_2.t10 39.4005
R23 1st_Vout_2.n4 1st_Vout_2.t0 39.4005
R24 1st_Vout_2.n4 1st_Vout_2.t6 39.4005
R25 1st_Vout_2 1st_Vout_2.n0 5.6255
R26 1st_Vout_2 1st_Vout_2.n2 5.28175
R27 1st_Vout_2.n1 1st_Vout_2.t27 4.8295
R28 1st_Vout_2.n1 1st_Vout_2.t11 4.8295
R29 1st_Vout_2.n1 1st_Vout_2.t18 4.8295
R30 1st_Vout_2.n1 1st_Vout_2.t31 4.8295
R31 1st_Vout_2.n1 1st_Vout_2.t35 4.8295
R32 1st_Vout_2.n1 1st_Vout_2.t24 4.8295
R33 1st_Vout_2.n3 1st_Vout_2.t16 4.8295
R34 1st_Vout_2.n3 1st_Vout_2.t30 4.8295
R35 1st_Vout_2.n3 1st_Vout_2.t28 4.8295
R36 1st_Vout_2.n2 1st_Vout_2.n8 4.5005
R37 1st_Vout_2.n1 1st_Vout_2.t25 4.5005
R38 1st_Vout_2.n1 1st_Vout_2.t23 4.5005
R39 1st_Vout_2.n1 1st_Vout_2.t17 4.5005
R40 1st_Vout_2.n1 1st_Vout_2.t15 4.5005
R41 1st_Vout_2.n1 1st_Vout_2.t34 4.5005
R42 1st_Vout_2.n1 1st_Vout_2.t33 4.5005
R43 1st_Vout_2.n3 1st_Vout_2.t13 4.5005
R44 1st_Vout_2.n3 1st_Vout_2.t12 4.5005
R45 1st_Vout_2.n3 1st_Vout_2.t19 4.5005
R46 1st_Vout_2.n3 1st_Vout_2.t36 4.5005
R47 1st_Vout_2.n3 1st_Vout_2.t14 4.5005
R48 1st_Vout_2.n3 1st_Vout_2.n1 3.1025
R49 cap_res2 cap_res2.t0 121.05
R50 cap_res2 cap_res2.t12 0.194375
R51 cap_res2.t1 cap_res2.t17 0.1603
R52 cap_res2.t19 cap_res2.t6 0.1603
R53 cap_res2.t4 cap_res2.t10 0.1603
R54 cap_res2.t16 cap_res2.t5 0.1603
R55 cap_res2.t11 cap_res2.t20 0.1603
R56 cap_res2.n1 cap_res2.t9 0.159278
R57 cap_res2.n2 cap_res2.t14 0.159278
R58 cap_res2.n3 cap_res2.t3 0.159278
R59 cap_res2.n4 cap_res2.t18 0.159278
R60 cap_res2.n4 cap_res2.t1 0.1368
R61 cap_res2.n4 cap_res2.t7 0.1368
R62 cap_res2.n3 cap_res2.t19 0.1368
R63 cap_res2.n3 cap_res2.t15 0.1368
R64 cap_res2.n2 cap_res2.t4 0.1368
R65 cap_res2.n2 cap_res2.t2 0.1368
R66 cap_res2.n1 cap_res2.t16 0.1368
R67 cap_res2.n1 cap_res2.t13 0.1368
R68 cap_res2.n0 cap_res2.t11 0.1368
R69 cap_res2.n0 cap_res2.t8 0.1368
R70 cap_res2.t9 cap_res2.n0 0.00152174
R71 cap_res2.t14 cap_res2.n1 0.00152174
R72 cap_res2.t3 cap_res2.n2 0.00152174
R73 cap_res2.t18 cap_res2.n3 0.00152174
R74 cap_res2.t12 cap_res2.n4 0.00152174
R75 PFET_GATE_10uA.n3 PFET_GATE_10uA.t11 565.114
R76 PFET_GATE_10uA.n19 PFET_GATE_10uA.t10 530.201
R77 PFET_GATE_10uA.n21 PFET_GATE_10uA.t17 409.7
R78 PFET_GATE_10uA.n16 PFET_GATE_10uA.t23 369.534
R79 PFET_GATE_10uA.n15 PFET_GATE_10uA.t19 369.534
R80 PFET_GATE_10uA.n1 PFET_GATE_10uA.t22 369.534
R81 PFET_GATE_10uA.n0 PFET_GATE_10uA.t14 369.534
R82 PFET_GATE_10uA.n19 PFET_GATE_10uA.t18 353.467
R83 PFET_GATE_10uA.n20 PFET_GATE_10uA.t24 353.467
R84 PFET_GATE_10uA.n6 PFET_GATE_10uA.n4 346.825
R85 PFET_GATE_10uA.n8 PFET_GATE_10uA.n7 344.7
R86 PFET_GATE_10uA.n6 PFET_GATE_10uA.n5 344.7
R87 PFET_GATE_10uA.n11 PFET_GATE_10uA.n10 340.2
R88 PFET_GATE_10uA.n14 PFET_GATE_10uA.t20 325.351
R89 PFET_GATE_10uA.n18 PFET_GATE_10uA.n14 202.364
R90 PFET_GATE_10uA.n16 PFET_GATE_10uA.t16 192.8
R91 PFET_GATE_10uA.n15 PFET_GATE_10uA.t13 192.8
R92 PFET_GATE_10uA.n14 PFET_GATE_10uA.t12 192.8
R93 PFET_GATE_10uA.n1 PFET_GATE_10uA.t15 192.8
R94 PFET_GATE_10uA.n0 PFET_GATE_10uA.t21 192.8
R95 PFET_GATE_10uA.n20 PFET_GATE_10uA.n19 176.733
R96 PFET_GATE_10uA.n13 PFET_GATE_10uA.n2 168.166
R97 PFET_GATE_10uA PFET_GATE_10uA.n21 166.071
R98 PFET_GATE_10uA.n18 PFET_GATE_10uA.n17 166.071
R99 PFET_GATE_10uA.n3 PFET_GATE_10uA.t0 137.386
R100 PFET_GATE_10uA.n9 PFET_GATE_10uA.t1 116.584
R101 PFET_GATE_10uA.n21 PFET_GATE_10uA.n20 56.2338
R102 PFET_GATE_10uA.n17 PFET_GATE_10uA.n16 56.2338
R103 PFET_GATE_10uA.n17 PFET_GATE_10uA.n15 56.2338
R104 PFET_GATE_10uA.n2 PFET_GATE_10uA.n1 56.2338
R105 PFET_GATE_10uA.n2 PFET_GATE_10uA.n0 56.2338
R106 PFET_GATE_10uA.n10 PFET_GATE_10uA.t5 39.4005
R107 PFET_GATE_10uA.n10 PFET_GATE_10uA.t3 39.4005
R108 PFET_GATE_10uA.n7 PFET_GATE_10uA.t6 39.4005
R109 PFET_GATE_10uA.n7 PFET_GATE_10uA.t7 39.4005
R110 PFET_GATE_10uA.n5 PFET_GATE_10uA.t9 39.4005
R111 PFET_GATE_10uA.n5 PFET_GATE_10uA.t8 39.4005
R112 PFET_GATE_10uA.n4 PFET_GATE_10uA.t2 39.4005
R113 PFET_GATE_10uA.n4 PFET_GATE_10uA.t4 39.4005
R114 PFET_GATE_10uA.n13 PFET_GATE_10uA.n12 27.5005
R115 PFET_GATE_10uA.n12 PFET_GATE_10uA.n11 9.53175
R116 PFET_GATE_10uA PFET_GATE_10uA.n18 5.2505
R117 PFET_GATE_10uA.n11 PFET_GATE_10uA.n9 4.5005
R118 PFET_GATE_10uA PFET_GATE_10uA.n13 2.34425
R119 PFET_GATE_10uA.n8 PFET_GATE_10uA.n6 2.1255
R120 PFET_GATE_10uA.n9 PFET_GATE_10uA.n8 2.1255
R121 PFET_GATE_10uA.n12 PFET_GATE_10uA.n3 1.78175
R122 VDDA.n102 VDDA.t141 683.365
R123 VDDA.n94 VDDA.t131 660
R124 VDDA.t125 VDDA.n93 660
R125 VDDA.n88 VDDA.t157 660
R126 VDDA.t147 VDDA.n87 660
R127 VDDA.n36 VDDA.t128 643.037
R128 VDDA.t166 VDDA.n35 643.037
R129 VDDA.n24 VDDA.t169 643.037
R130 VDDA.t154 VDDA.n23 643.037
R131 VDDA.n18 VDDA.t134 643.037
R132 VDDA.t163 VDDA.n17 643.037
R133 VDDA.t122 VDDA.n101 643.037
R134 VDDA.n126 VDDA.t149 611.909
R135 VDDA.n28 VDDA.t136 601.867
R136 VDDA.n31 VDDA.t118 601.867
R137 VDDA.n123 VDDA.t143 579.775
R138 VDDA.n100 VDDA.t121 413.084
R139 VDDA.n103 VDDA.t140 413.084
R140 VDDA.n34 VDDA.t165 409.067
R141 VDDA.n37 VDDA.t127 409.067
R142 VDDA.n22 VDDA.t153 409.067
R143 VDDA.n16 VDDA.t162 409.067
R144 VDDA.n19 VDDA.t133 409.067
R145 VDDA.t131 VDDA.t177 407.144
R146 VDDA.t177 VDDA.t204 407.144
R147 VDDA.t204 VDDA.t192 407.144
R148 VDDA.t192 VDDA.t0 407.144
R149 VDDA.t0 VDDA.t53 407.144
R150 VDDA.t53 VDDA.t175 407.144
R151 VDDA.t175 VDDA.t181 407.144
R152 VDDA.t181 VDDA.t70 407.144
R153 VDDA.t70 VDDA.t189 407.144
R154 VDDA.t189 VDDA.t8 407.144
R155 VDDA.t8 VDDA.t19 407.144
R156 VDDA.t19 VDDA.t179 407.144
R157 VDDA.t179 VDDA.t171 407.144
R158 VDDA.t171 VDDA.t46 407.144
R159 VDDA.t46 VDDA.t68 407.144
R160 VDDA.t68 VDDA.t6 407.144
R161 VDDA.t6 VDDA.t187 407.144
R162 VDDA.t187 VDDA.t173 407.144
R163 VDDA.t173 VDDA.t125 407.144
R164 VDDA.t157 VDDA.t58 407.144
R165 VDDA.t58 VDDA.t28 407.144
R166 VDDA.t28 VDDA.t31 407.144
R167 VDDA.t31 VDDA.t83 407.144
R168 VDDA.t83 VDDA.t196 407.144
R169 VDDA.t196 VDDA.t62 407.144
R170 VDDA.t62 VDDA.t185 407.144
R171 VDDA.t185 VDDA.t4 407.144
R172 VDDA.t4 VDDA.t183 407.144
R173 VDDA.t183 VDDA.t33 407.144
R174 VDDA.t33 VDDA.t81 407.144
R175 VDDA.t81 VDDA.t10 407.144
R176 VDDA.t10 VDDA.t198 407.144
R177 VDDA.t198 VDDA.t35 407.144
R178 VDDA.t35 VDDA.t209 407.144
R179 VDDA.t209 VDDA.t202 407.144
R180 VDDA.t202 VDDA.t42 407.144
R181 VDDA.t42 VDDA.t25 407.144
R182 VDDA.t25 VDDA.t147 407.144
R183 VDDA.n25 VDDA.t168 390.322
R184 VDDA.t128 VDDA.t105 373.214
R185 VDDA.t105 VDDA.t91 373.214
R186 VDDA.t91 VDDA.t103 373.214
R187 VDDA.t103 VDDA.t89 373.214
R188 VDDA.t89 VDDA.t166 373.214
R189 VDDA.t169 VDDA.t95 373.214
R190 VDDA.t95 VDDA.t107 373.214
R191 VDDA.t107 VDDA.t101 373.214
R192 VDDA.t101 VDDA.t87 373.214
R193 VDDA.t87 VDDA.t154 373.214
R194 VDDA.t134 VDDA.t109 373.214
R195 VDDA.t109 VDDA.t93 373.214
R196 VDDA.t93 VDDA.t163 373.214
R197 VDDA.t141 VDDA.t57 373.214
R198 VDDA.t57 VDDA.t52 373.214
R199 VDDA.t52 VDDA.t122 373.214
R200 VDDA.n122 VDDA.t115 360.868
R201 VDDA.n105 VDDA.t159 360.868
R202 VDDA.n89 VDDA.t156 358.858
R203 VDDA.n51 VDDA.n50 347.104
R204 VDDA.n53 VDDA.n52 347.104
R205 VDDA.n55 VDDA.n54 347.104