* PEX produced on Sun Jul 27 05:06:34 PM CEST 2025 using /foss/tools/osic-multitool/iic-pex.sh with m=3 and s=1
* NGSPICE file created from bgr_opamp_dummy_magic_16.ext - technology: sky130A

.subckt bgr_opamp_dummy_magic_16 VDDA GNDA VOUT+ VOUT- VIN+ VIN-
X0 VOUT+.t12 two_stage_opamp_dummy_magic_23_0.Y.t25 VDDA.t308 VDDA.t307 sky130_fd_pr__pfet_01v8 ad=1.2 pd=6.4 as=1.2 ps=6.4 w=6 l=0.15
X1 VDDA.t469 GNDA.t398 sky130_fd_pr__cap_mim_m3_1 l=2 w=2
X2 VDDA.t470 GNDA.t397 sky130_fd_pr__cap_mim_m3_1 l=2 w=2
X3 VDDA.t471 GNDA.t396 sky130_fd_pr__cap_mim_m3_1 l=2 w=2
X4 bgr_11_0.1st_Vout_2.t11 bgr_11_0.cap_res2.t19 sky130_fd_pr__cap_mim_m3_1 l=2 w=2
X5 VDDA.t472 GNDA.t395 sky130_fd_pr__cap_mim_m3_1 l=2 w=2
X6 VOUT-.t19 two_stage_opamp_dummy_magic_23_0.cap_res_X.t138 sky130_fd_pr__cap_mim_m3_1 l=2 w=2
X7 VDDA.t473 GNDA.t394 sky130_fd_pr__cap_mim_m3_1 l=2 w=2
X8 two_stage_opamp_dummy_magic_23_0.VD1.t21 two_stage_opamp_dummy_magic_23_0.Vb1.t14 two_stage_opamp_dummy_magic_23_0.X.t16 GNDA.t27 sky130_fd_pr__nfet_01v8 ad=0.3 pd=1.9 as=0.3 ps=1.9 w=1.5 l=0.15
X9 two_stage_opamp_dummy_magic_23_0.X.t10 two_stage_opamp_dummy_magic_23_0.Vb2.t11 two_stage_opamp_dummy_magic_23_0.VD3.t34 two_stage_opamp_dummy_magic_23_0.VD3.t33 sky130_fd_pr__pfet_01v8 ad=0.7 pd=3.9 as=0.7 ps=3.9 w=3.5 l=0.2
X10 VOUT-.t15 VDDA.t421 VDDA.t423 VDDA.t422 sky130_fd_pr__pfet_01v8 ad=1.2 pd=6.4 as=2.4 ps=12.8 w=6 l=0.15
X11 GNDA.t154 bgr_11_0.NFET_GATE_10uA.t5 two_stage_opamp_dummy_magic_23_0.V_err_gate.t4 GNDA.t153 sky130_fd_pr__nfet_01v8 ad=0.2 pd=1.4 as=0.2 ps=1.4 w=1 l=0.15
X12 VOUT+.t19 two_stage_opamp_dummy_magic_23_0.cap_res_Y.t138 sky130_fd_pr__cap_mim_m3_1 l=2 w=2
X13 GNDA.t573 GNDA.t571 VDDA.t440 GNDA.t572 sky130_fd_pr__nfet_01v8 ad=1.2 pd=6.8 as=0.6 ps=3.4 w=3 l=0.15
X14 VDDA.t474 GNDA.t393 sky130_fd_pr__cap_mim_m3_1 l=2 w=2
X15 VDDA.t475 GNDA.t392 sky130_fd_pr__cap_mim_m3_1 l=2 w=2
X16 bgr_11_0.1st_Vout_1.t11 bgr_11_0.cap_res1.t20 sky130_fd_pr__cap_mim_m3_1 l=2 w=2
X17 VDDA.t476 GNDA.t391 sky130_fd_pr__cap_mim_m3_1 l=2 w=2
X18 GNDA.t570 GNDA.t567 GNDA.t569 GNDA.t568 sky130_fd_pr__nfet_01v8 ad=1 pd=5.8 as=0 ps=0 w=2.5 l=0.15
X19 VDDA.t477 GNDA.t390 sky130_fd_pr__cap_mim_m3_1 l=2 w=2
X20 two_stage_opamp_dummy_magic_23_0.VD2.t21 two_stage_opamp_dummy_magic_23_0.Vb1.t15 two_stage_opamp_dummy_magic_23_0.Y.t9 GNDA.t15 sky130_fd_pr__nfet_01v8 ad=0.3 pd=1.9 as=0.3 ps=1.9 w=1.5 l=0.15
X21 GNDA.t77 two_stage_opamp_dummy_magic_23_0.V_tail_gate.t12 two_stage_opamp_dummy_magic_23_0.V_source.t25 GNDA.t76 sky130_fd_pr__nfet_01v8 ad=0.5 pd=2.9 as=0.5 ps=2.9 w=2.5 l=0.15
X22 VDDA.t478 GNDA.t389 sky130_fd_pr__cap_mim_m3_1 l=2 w=2
X23 bgr_11_0.V_mir2.t14 bgr_11_0.V_mir2.t13 VDDA.t84 VDDA.t83 sky130_fd_pr__pfet_01v8 ad=0.2 pd=1.4 as=0.2 ps=1.4 w=1 l=0.2
X24 VDDA.t145 bgr_11_0.V_TOP.t14 bgr_11_0.Vin-.t7 VDDA.t144 sky130_fd_pr__pfet_01v8 ad=0.6 pd=3.4 as=0.6 ps=3.4 w=3 l=0.5
X25 two_stage_opamp_dummy_magic_23_0.V_CMFB_S3.t13 VDDA.t418 VDDA.t420 VDDA.t419 sky130_fd_pr__pfet_01v8 ad=0.2 pd=1.4 as=0.4 ps=2.8 w=1 l=0.15
X26 bgr_11_0.1st_Vout_1.t12 bgr_11_0.cap_res1.t19 sky130_fd_pr__cap_mim_m3_1 l=2 w=2
X27 two_stage_opamp_dummy_magic_23_0.V_CMFB_S3.t15 bgr_11_0.PFET_GATE_10uA.t10 VDDA.t450 VDDA.t449 sky130_fd_pr__pfet_01v8 ad=0.2 pd=1.4 as=0.2 ps=1.4 w=1 l=0.15
X28 two_stage_opamp_dummy_magic_23_0.VD1.t20 two_stage_opamp_dummy_magic_23_0.Vb1.t16 two_stage_opamp_dummy_magic_23_0.X.t15 GNDA.t108 sky130_fd_pr__nfet_01v8 ad=0.3 pd=1.9 as=0.3 ps=1.9 w=1.5 l=0.15
X29 VOUT-.t20 two_stage_opamp_dummy_magic_23_0.cap_res_X.t137 sky130_fd_pr__cap_mim_m3_1 l=2 w=2
X30 two_stage_opamp_dummy_magic_23_0.VD4.t9 two_stage_opamp_dummy_magic_23_0.Vb3.t8 VDDA.t23 VDDA.t22 sky130_fd_pr__pfet_01v8 ad=0.7 pd=3.9 as=0.7 ps=3.9 w=3.5 l=0.2
X31 VDDA.t479 GNDA.t388 sky130_fd_pr__cap_mim_m3_1 l=2 w=2
X32 two_stage_opamp_dummy_magic_23_0.V_CMFB_S1.t16 two_stage_opamp_dummy_magic_23_0.X.t25 GNDA.t150 VDDA.t215 sky130_fd_pr__pfet_01v8 ad=0.4 pd=2.4 as=0.4 ps=2.4 w=2 l=0.15
X33 two_stage_opamp_dummy_magic_23_0.Vb2_2.t5 two_stage_opamp_dummy_magic_23_0.Vb2_2.t3 two_stage_opamp_dummy_magic_23_0.Vb2_2.t5 two_stage_opamp_dummy_magic_23_0.Vb2_2.t4 sky130_fd_pr__pfet_01v8 ad=0.7 pd=3.9 as=0 ps=0 w=3.5 l=0.2
X34 VOUT-.t21 two_stage_opamp_dummy_magic_23_0.cap_res_X.t136 sky130_fd_pr__cap_mim_m3_1 l=2 w=2
X35 VDDA.t480 GNDA.t387 sky130_fd_pr__cap_mim_m3_1 l=2 w=2
X36 bgr_11_0.V_mir2.t15 two_stage_opamp_dummy_magic_23_0.V_err_amp_ref.t7 bgr_11_0.V_p_2.t7 GNDA.t114 sky130_fd_pr__nfet_01v8 ad=0.2 pd=1.8 as=0.1 ps=0.9 w=0.5 l=0.2
X37 VDDA.t481 GNDA.t386 sky130_fd_pr__cap_mim_m3_1 l=2 w=2
X38 GNDA.t100 a_6470_23450.t0 GNDA.t35 sky130_fd_pr__res_xhigh_po_0p35 l=6
X39 VDDA.t482 GNDA.t385 sky130_fd_pr__cap_mim_m3_1 l=2 w=2
X40 VOUT+.t20 two_stage_opamp_dummy_magic_23_0.cap_res_Y.t137 sky130_fd_pr__cap_mim_m3_1 l=2 w=2
X41 VDDA.t483 GNDA.t384 sky130_fd_pr__cap_mim_m3_1 l=2 w=2
X42 VOUT-.t22 two_stage_opamp_dummy_magic_23_0.cap_res_X.t135 sky130_fd_pr__cap_mim_m3_1 l=2 w=2
X43 VDDA.t484 GNDA.t383 sky130_fd_pr__cap_mim_m3_1 l=2 w=2
X44 VOUT-.t23 two_stage_opamp_dummy_magic_23_0.cap_res_X.t134 sky130_fd_pr__cap_mim_m3_1 l=2 w=2
X45 two_stage_opamp_dummy_magic_23_0.err_amp_out.t6 two_stage_opamp_dummy_magic_23_0.V_err_amp_ref.t8 two_stage_opamp_dummy_magic_23_0.V_err_p.t16 VDDA.t92 sky130_fd_pr__pfet_01v8 ad=0.1 pd=0.9 as=0.1 ps=0.9 w=0.5 l=0.15
X46 VDDA.t305 two_stage_opamp_dummy_magic_23_0.Y.t26 two_stage_opamp_dummy_magic_23_0.V_CMFB_S4.t13 GNDA.t202 sky130_fd_pr__nfet_01v8 ad=0.6 pd=3.4 as=0.6 ps=3.4 w=3 l=0.15
X47 VOUT+.t21 two_stage_opamp_dummy_magic_23_0.cap_res_Y.t136 sky130_fd_pr__cap_mim_m3_1 l=2 w=2
X48 VOUT+.t22 two_stage_opamp_dummy_magic_23_0.cap_res_Y.t135 sky130_fd_pr__cap_mim_m3_1 l=2 w=2
X49 VDDA.t485 GNDA.t382 sky130_fd_pr__cap_mim_m3_1 l=2 w=2
X50 VDDA.t486 GNDA.t381 sky130_fd_pr__cap_mim_m3_1 l=2 w=2
X51 VOUT+.t23 two_stage_opamp_dummy_magic_23_0.cap_res_Y.t134 sky130_fd_pr__cap_mim_m3_1 l=2 w=2
X52 GNDA.t66 bgr_11_0.NFET_GATE_10uA.t6 two_stage_opamp_dummy_magic_23_0.V_CMFB_S4.t3 GNDA.t65 sky130_fd_pr__nfet_01v8 ad=0.2 pd=1.4 as=0.2 ps=1.4 w=1 l=0.15
X53 bgr_11_0.V_TOP.t15 VDDA.t146 sky130_fd_pr__cap_mim_m3_1 l=2 w=2
X54 two_stage_opamp_dummy_magic_23_0.Vb2.t8 GNDA.t564 GNDA.t566 GNDA.t565 sky130_fd_pr__nfet_01v8 ad=0.2 pd=1.4 as=0.4 ps=2.8 w=1 l=0.15
X55 bgr_11_0.PFET_GATE_10uA.t8 bgr_11_0.1st_Vout_2.t12 VDDA.t71 VDDA.t70 sky130_fd_pr__pfet_01v8 ad=0.2 pd=1.4 as=0.2 ps=1.4 w=1 l=0.2
X56 VDDA.t212 two_stage_opamp_dummy_magic_23_0.V_err_gate.t14 two_stage_opamp_dummy_magic_23_0.V_err_p.t12 VDDA.t211 sky130_fd_pr__pfet_01v8 ad=0.1 pd=0.9 as=0.1 ps=0.9 w=0.5 l=0.15
X57 VDDA.t487 GNDA.t380 sky130_fd_pr__cap_mim_m3_1 l=2 w=2
X58 VDDA.t488 GNDA.t379 sky130_fd_pr__cap_mim_m3_1 l=2 w=2
X59 GNDA.t112 two_stage_opamp_dummy_magic_23_0.err_amp_mir.t17 two_stage_opamp_dummy_magic_23_0.err_amp_out.t1 GNDA.t111 sky130_fd_pr__nfet_01v8 ad=0.1 pd=0.9 as=0.1 ps=0.9 w=0.5 l=0.15
X60 VOUT-.t24 two_stage_opamp_dummy_magic_23_0.cap_res_X.t133 sky130_fd_pr__cap_mim_m3_1 l=2 w=2
X61 VDDA.t217 bgr_11_0.V_TOP.t16 bgr_11_0.Vin+.t5 VDDA.t216 sky130_fd_pr__pfet_01v8 ad=0.6 pd=3.4 as=0.6 ps=3.4 w=3 l=0.5
X62 VDDA.t214 two_stage_opamp_dummy_magic_23_0.V_err_gate.t15 a_7460_6300.t10 VDDA.t213 sky130_fd_pr__pfet_01v8 ad=0.1 pd=0.9 as=0.1 ps=0.9 w=0.5 l=0.15
X63 GNDA.t200 two_stage_opamp_dummy_magic_23_0.Y.t27 two_stage_opamp_dummy_magic_23_0.V_CMFB_S3.t11 VDDA.t306 sky130_fd_pr__pfet_01v8 ad=0.4 pd=2.4 as=0.4 ps=2.4 w=2 l=0.15
X64 VOUT-.t25 two_stage_opamp_dummy_magic_23_0.cap_res_X.t132 sky130_fd_pr__cap_mim_m3_1 l=2 w=2
X65 two_stage_opamp_dummy_magic_23_0.V_source.t26 VIN-.t0 two_stage_opamp_dummy_magic_23_0.VD1.t4 GNDA.t87 sky130_fd_pr__nfet_01v8 ad=0.3 pd=1.9 as=0.3 ps=1.9 w=1.5 l=0.15
X66 VDDA.t489 GNDA.t378 sky130_fd_pr__cap_mim_m3_1 l=2 w=2
X67 VDDA.t490 GNDA.t377 sky130_fd_pr__cap_mim_m3_1 l=2 w=2
X68 two_stage_opamp_dummy_magic_23_0.err_amp_out.t5 two_stage_opamp_dummy_magic_23_0.V_err_amp_ref.t9 two_stage_opamp_dummy_magic_23_0.V_err_p.t13 VDDA.t43 sky130_fd_pr__pfet_01v8 ad=0.1 pd=0.9 as=0.1 ps=0.9 w=0.5 l=0.15
X69 bgr_11_0.V_TOP.t17 VDDA.t218 sky130_fd_pr__cap_mim_m3_1 l=2 w=2
X70 VOUT+.t24 two_stage_opamp_dummy_magic_23_0.cap_res_Y.t133 sky130_fd_pr__cap_mim_m3_1 l=2 w=2
X71 VOUT-.t26 two_stage_opamp_dummy_magic_23_0.cap_res_X.t131 sky130_fd_pr__cap_mim_m3_1 l=2 w=2
X72 VDDA.t491 GNDA.t376 sky130_fd_pr__cap_mim_m3_1 l=2 w=2
X73 VDDA.t492 GNDA.t375 sky130_fd_pr__cap_mim_m3_1 l=2 w=2
X74 VDDA.t493 GNDA.t374 sky130_fd_pr__cap_mim_m3_1 l=2 w=2
X75 VOUT-.t27 two_stage_opamp_dummy_magic_23_0.cap_res_X.t130 sky130_fd_pr__cap_mim_m3_1 l=2 w=2
X76 VOUT-.t28 two_stage_opamp_dummy_magic_23_0.cap_res_X.t129 sky130_fd_pr__cap_mim_m3_1 l=2 w=2
X77 VDDA.t16 two_stage_opamp_dummy_magic_23_0.Vb3.t9 two_stage_opamp_dummy_magic_23_0.VD3.t6 VDDA.t15 sky130_fd_pr__pfet_01v8 ad=0.7 pd=3.9 as=0.7 ps=3.9 w=3.5 l=0.2
X78 two_stage_opamp_dummy_magic_23_0.V_err_p.t11 two_stage_opamp_dummy_magic_23_0.V_err_gate.t16 VDDA.t76 VDDA.t75 sky130_fd_pr__pfet_01v8 ad=0.1 pd=0.9 as=0.1 ps=0.9 w=0.5 l=0.15
X79 VDDA.t494 GNDA.t373 sky130_fd_pr__cap_mim_m3_1 l=2 w=2
X80 VOUT-.t29 two_stage_opamp_dummy_magic_23_0.cap_res_X.t128 sky130_fd_pr__cap_mim_m3_1 l=2 w=2
X81 VDDA.t156 two_stage_opamp_dummy_magic_23_0.Vb3.t10 two_stage_opamp_dummy_magic_23_0.VD4.t8 VDDA.t155 sky130_fd_pr__pfet_01v8 ad=0.7 pd=3.9 as=0.7 ps=3.9 w=3.5 l=0.2
X82 VOUT+.t11 two_stage_opamp_dummy_magic_23_0.Y.t28 VDDA.t304 VDDA.t303 sky130_fd_pr__pfet_01v8 ad=1.2 pd=6.4 as=1.2 ps=6.4 w=6 l=0.15
X83 bgr_11_0.V_TOP.t18 VDDA.t141 sky130_fd_pr__cap_mim_m3_1 l=2 w=2
X84 VOUT-.t30 two_stage_opamp_dummy_magic_23_0.cap_res_X.t127 sky130_fd_pr__cap_mim_m3_1 l=2 w=2
X85 two_stage_opamp_dummy_magic_23_0.VD1.t6 VIN-.t1 two_stage_opamp_dummy_magic_23_0.V_source.t31 GNDA.t113 sky130_fd_pr__nfet_01v8 ad=0.3 pd=1.9 as=0.3 ps=1.9 w=1.5 l=0.15
X86 VOUT-.t31 two_stage_opamp_dummy_magic_23_0.cap_res_X.t126 sky130_fd_pr__cap_mim_m3_1 l=2 w=2
X87 VOUT+.t25 two_stage_opamp_dummy_magic_23_0.cap_res_Y.t132 sky130_fd_pr__cap_mim_m3_1 l=2 w=2
X88 VOUT-.t32 two_stage_opamp_dummy_magic_23_0.cap_res_X.t125 sky130_fd_pr__cap_mim_m3_1 l=2 w=2
X89 two_stage_opamp_dummy_magic_23_0.Y.t23 two_stage_opamp_dummy_magic_23_0.Vb2.t12 two_stage_opamp_dummy_magic_23_0.VD4.t37 two_stage_opamp_dummy_magic_23_0.VD4.t36 sky130_fd_pr__pfet_01v8 ad=0.7 pd=3.9 as=0.7 ps=3.9 w=3.5 l=0.2
X90 VDDA.t417 VDDA.t415 two_stage_opamp_dummy_magic_23_0.err_amp_out.t9 VDDA.t416 sky130_fd_pr__pfet_01v8 ad=0.2 pd=1.8 as=0.1 ps=0.9 w=0.5 l=0.15
X91 VDDA.t495 GNDA.t372 sky130_fd_pr__cap_mim_m3_1 l=2 w=2
X92 VOUT+.t26 two_stage_opamp_dummy_magic_23_0.cap_res_Y.t131 sky130_fd_pr__cap_mim_m3_1 l=2 w=2
X93 VOUT-.t33 two_stage_opamp_dummy_magic_23_0.cap_res_X.t124 sky130_fd_pr__cap_mim_m3_1 l=2 w=2
X94 bgr_11_0.V_mir2.t0 two_stage_opamp_dummy_magic_23_0.V_err_amp_ref.t10 bgr_11_0.V_p_2.t6 GNDA.t33 sky130_fd_pr__nfet_01v8 ad=0.1 pd=0.9 as=0.1 ps=0.9 w=0.5 l=0.2
X95 VOUT+.t27 two_stage_opamp_dummy_magic_23_0.cap_res_Y.t130 sky130_fd_pr__cap_mim_m3_1 l=2 w=2
X96 VDDA.t496 GNDA.t371 sky130_fd_pr__cap_mim_m3_1 l=2 w=2
X97 VDDA.t497 GNDA.t370 sky130_fd_pr__cap_mim_m3_1 l=2 w=2
X98 VDDA.t498 GNDA.t369 sky130_fd_pr__cap_mim_m3_1 l=2 w=2
X99 bgr_11_0.Vin+.t4 bgr_11_0.V_TOP.t19 VDDA.t143 VDDA.t142 sky130_fd_pr__pfet_01v8 ad=0.6 pd=3.4 as=0.6 ps=3.4 w=3 l=0.5
X100 two_stage_opamp_dummy_magic_23_0.V_CMFB_S2.t14 two_stage_opamp_dummy_magic_23_0.X.t26 VDDA.t189 GNDA.t148 sky130_fd_pr__nfet_01v8 ad=0.6 pd=3.4 as=0.6 ps=3.4 w=3 l=0.15
X101 two_stage_opamp_dummy_magic_23_0.V_CMFB_S3.t10 two_stage_opamp_dummy_magic_23_0.Y.t29 GNDA.t201 VDDA.t302 sky130_fd_pr__pfet_01v8 ad=0.4 pd=2.4 as=0.4 ps=2.4 w=2 l=0.15
X102 two_stage_opamp_dummy_magic_23_0.VD2.t4 VIN+.t0 two_stage_opamp_dummy_magic_23_0.V_source.t29 GNDA.t109 sky130_fd_pr__nfet_01v8 ad=0.3 pd=1.9 as=0.3 ps=1.9 w=1.5 l=0.15
X103 VDDA.t499 GNDA.t368 sky130_fd_pr__cap_mim_m3_1 l=2 w=2
X104 bgr_11_0.NFET_GATE_10uA.t4 bgr_11_0.PFET_GATE_10uA.t11 VDDA.t465 VDDA.t464 sky130_fd_pr__pfet_01v8 ad=0.2 pd=1.4 as=0.2 ps=1.4 w=1 l=0.15
X105 VDDA.t500 GNDA.t367 sky130_fd_pr__cap_mim_m3_1 l=2 w=2
X106 VOUT-.t34 two_stage_opamp_dummy_magic_23_0.cap_res_X.t123 sky130_fd_pr__cap_mim_m3_1 l=2 w=2
X107 VDDA.t121 bgr_11_0.PFET_GATE_10uA.t12 two_stage_opamp_dummy_magic_23_0.V_tail_gate.t3 VDDA.t120 sky130_fd_pr__pfet_01v8 ad=0.2 pd=1.4 as=0.2 ps=1.4 w=1 l=0.15
X108 VDDA.t414 VDDA.t412 two_stage_opamp_dummy_magic_23_0.V_err_gate.t11 VDDA.t413 sky130_fd_pr__pfet_01v8 ad=0.2 pd=1.8 as=0.1 ps=0.9 w=0.5 l=0.15
X109 bgr_11_0.V_TOP.t20 VDDA.t429 sky130_fd_pr__cap_mim_m3_1 l=2 w=2
X110 VOUT-.t35 two_stage_opamp_dummy_magic_23_0.cap_res_X.t122 sky130_fd_pr__cap_mim_m3_1 l=2 w=2
X111 VOUT+.t28 two_stage_opamp_dummy_magic_23_0.cap_res_Y.t129 sky130_fd_pr__cap_mim_m3_1 l=2 w=2
X112 bgr_11_0.1st_Vout_2.t5 bgr_11_0.V_mir2.t17 VDDA.t220 VDDA.t219 sky130_fd_pr__pfet_01v8 ad=0.2 pd=1.4 as=0.2 ps=1.4 w=1 l=0.2
X113 GNDA.t64 two_stage_opamp_dummy_magic_23_0.V_tail_gate.t13 two_stage_opamp_dummy_magic_23_0.V_source.t24 GNDA.t63 sky130_fd_pr__nfet_01v8 ad=0.5 pd=2.9 as=0.5 ps=2.9 w=2.5 l=0.15
X114 VOUT-.t36 two_stage_opamp_dummy_magic_23_0.cap_res_X.t121 sky130_fd_pr__cap_mim_m3_1 l=2 w=2
X115 VOUT-.t37 two_stage_opamp_dummy_magic_23_0.cap_res_X.t120 sky130_fd_pr__cap_mim_m3_1 l=2 w=2
X116 VOUT+.t29 two_stage_opamp_dummy_magic_23_0.cap_res_Y.t128 sky130_fd_pr__cap_mim_m3_1 l=2 w=2
X117 GNDA.t563 GNDA.t561 two_stage_opamp_dummy_magic_23_0.Vb1.t5 GNDA.t562 sky130_fd_pr__nfet_01v8 ad=0.6 pd=3.8 as=0.3 ps=1.9 w=1.5 l=0.15
X118 VDDA.t501 GNDA.t366 sky130_fd_pr__cap_mim_m3_1 l=2 w=2
X119 two_stage_opamp_dummy_magic_23_0.VD1.t19 two_stage_opamp_dummy_magic_23_0.Vb1.t17 two_stage_opamp_dummy_magic_23_0.X.t20 GNDA.t87 sky130_fd_pr__nfet_01v8 ad=0.3 pd=1.9 as=0.3 ps=1.9 w=1.5 l=0.15
X120 two_stage_opamp_dummy_magic_23_0.V_CMFB_S1.t15 two_stage_opamp_dummy_magic_23_0.X.t27 GNDA.t149 VDDA.t190 sky130_fd_pr__pfet_01v8 ad=0.4 pd=2.4 as=0.4 ps=2.4 w=2 l=0.15
X121 VOUT-.t38 two_stage_opamp_dummy_magic_23_0.cap_res_X.t119 sky130_fd_pr__cap_mim_m3_1 l=2 w=2
X122 two_stage_opamp_dummy_magic_23_0.V_CMFB_S1.t14 two_stage_opamp_dummy_magic_23_0.X.t28 GNDA.t145 VDDA.t180 sky130_fd_pr__pfet_01v8 ad=0.4 pd=2.4 as=0.4 ps=2.4 w=2 l=0.15
X123 VDDA.t502 GNDA.t365 sky130_fd_pr__cap_mim_m3_1 l=2 w=2
X124 VDDA.t503 GNDA.t364 sky130_fd_pr__cap_mim_m3_1 l=2 w=2
X125 VDDA.t504 GNDA.t363 sky130_fd_pr__cap_mim_m3_1 l=2 w=2
X126 VDDA.t505 GNDA.t362 sky130_fd_pr__cap_mim_m3_1 l=2 w=2
X127 bgr_11_0.V_TOP.t21 VDDA.t430 sky130_fd_pr__cap_mim_m3_1 l=2 w=2
X128 bgr_11_0.V_mir2.t2 two_stage_opamp_dummy_magic_23_0.V_err_amp_ref.t11 bgr_11_0.V_p_2.t5 GNDA.t101 sky130_fd_pr__nfet_01v8 ad=0.1 pd=0.9 as=0.1 ps=0.9 w=0.5 l=0.2
X129 VOUT+.t30 two_stage_opamp_dummy_magic_23_0.cap_res_Y.t127 sky130_fd_pr__cap_mim_m3_1 l=2 w=2
X130 a_12070_24908.t1 bgr_11_0.V_CUR_REF_REG.t1 GNDA.t89 sky130_fd_pr__res_xhigh_po_0p35 l=4
X131 two_stage_opamp_dummy_magic_23_0.Vb3.t6 GNDA.t558 GNDA.t560 GNDA.t559 sky130_fd_pr__nfet_01v8 ad=0.2 pd=1.4 as=0.4 ps=2.8 w=1 l=0.15
X132 VDDA.t459 two_stage_opamp_dummy_magic_23_0.Vb3.t11 two_stage_opamp_dummy_magic_23_0.VD4.t7 VDDA.t458 sky130_fd_pr__pfet_01v8 ad=0.7 pd=3.9 as=0.7 ps=3.9 w=3.5 l=0.2
X133 VOUT+.t31 two_stage_opamp_dummy_magic_23_0.cap_res_Y.t126 sky130_fd_pr__cap_mim_m3_1 l=2 w=2
X134 VOUT-.t39 two_stage_opamp_dummy_magic_23_0.cap_res_X.t118 sky130_fd_pr__cap_mim_m3_1 l=2 w=2
X135 VDDA.t506 GNDA.t361 sky130_fd_pr__cap_mim_m3_1 l=2 w=2
X136 VOUT+.t32 two_stage_opamp_dummy_magic_23_0.cap_res_Y.t125 sky130_fd_pr__cap_mim_m3_1 l=2 w=2
X137 VOUT+.t33 two_stage_opamp_dummy_magic_23_0.cap_res_Y.t124 sky130_fd_pr__cap_mim_m3_1 l=2 w=2
X138 two_stage_opamp_dummy_magic_23_0.Vb3.t4 bgr_11_0.NFET_GATE_10uA.t7 GNDA.t68 GNDA.t67 sky130_fd_pr__nfet_01v8 ad=0.2 pd=1.4 as=0.2 ps=1.4 w=1 l=0.15
X139 bgr_11_0.1st_Vout_2.t13 bgr_11_0.cap_res2.t18 sky130_fd_pr__cap_mim_m3_1 l=2 w=2
X140 VDDA.t507 GNDA.t360 sky130_fd_pr__cap_mim_m3_1 l=2 w=2
X141 VDDA.t508 GNDA.t359 sky130_fd_pr__cap_mim_m3_1 l=2 w=2
X142 bgr_11_0.V_mir1.t11 bgr_11_0.V_mir1.t10 VDDA.t246 VDDA.t245 sky130_fd_pr__pfet_01v8 ad=0.2 pd=1.4 as=0.2 ps=1.4 w=1 l=0.2
X143 two_stage_opamp_dummy_magic_23_0.X.t19 two_stage_opamp_dummy_magic_23_0.Vb1.t18 two_stage_opamp_dummy_magic_23_0.VD1.t18 GNDA.t113 sky130_fd_pr__nfet_01v8 ad=0.3 pd=1.9 as=0.3 ps=1.9 w=1.5 l=0.15
X144 VDDA.t411 VDDA.t409 VOUT-.t14 VDDA.t410 sky130_fd_pr__pfet_01v8 ad=2.4 pd=12.8 as=1.2 ps=6.4 w=6 l=0.15
X145 VDDA.t509 GNDA.t358 sky130_fd_pr__cap_mim_m3_1 l=2 w=2
X146 VDDA.t510 GNDA.t357 sky130_fd_pr__cap_mim_m3_1 l=2 w=2
X147 VOUT+.t34 two_stage_opamp_dummy_magic_23_0.cap_res_Y.t123 sky130_fd_pr__cap_mim_m3_1 l=2 w=2
X148 bgr_11_0.1st_Vout_1.t13 bgr_11_0.cap_res1.t18 sky130_fd_pr__cap_mim_m3_1 l=2 w=2
X149 VOUT+.t35 two_stage_opamp_dummy_magic_23_0.cap_res_Y.t122 sky130_fd_pr__cap_mim_m3_1 l=2 w=2
X150 VDDA.t78 two_stage_opamp_dummy_magic_23_0.V_err_gate.t17 a_7460_6300.t9 VDDA.t77 sky130_fd_pr__pfet_01v8 ad=0.1 pd=0.9 as=0.1 ps=0.9 w=0.5 l=0.15
X151 GNDA.t39 two_stage_opamp_dummy_magic_23_0.err_amp_mir.t11 two_stage_opamp_dummy_magic_23_0.err_amp_mir.t12 GNDA.t38 sky130_fd_pr__nfet_01v8 ad=0.1 pd=0.9 as=0.1 ps=0.9 w=0.5 l=0.15
X152 bgr_11_0.1st_Vout_2.t14 bgr_11_0.cap_res2.t17 sky130_fd_pr__cap_mim_m3_1 l=2 w=2
X153 VDDA.t511 GNDA.t356 sky130_fd_pr__cap_mim_m3_1 l=2 w=2
X154 VOUT-.t40 two_stage_opamp_dummy_magic_23_0.cap_res_X.t117 sky130_fd_pr__cap_mim_m3_1 l=2 w=2
X155 two_stage_opamp_dummy_magic_23_0.Vb2_Vb3.t6 two_stage_opamp_dummy_magic_23_0.Vb2_Vb3.t3 two_stage_opamp_dummy_magic_23_0.Vb2_Vb3.t5 two_stage_opamp_dummy_magic_23_0.Vb2_Vb3.t4 sky130_fd_pr__pfet_01v8 ad=1.4 pd=7.8 as=0 ps=0 w=3.5 l=0.2
X156 VDDA.t512 GNDA.t355 sky130_fd_pr__cap_mim_m3_1 l=2 w=2
X157 VOUT-.t41 two_stage_opamp_dummy_magic_23_0.cap_res_X.t116 sky130_fd_pr__cap_mim_m3_1 l=2 w=2
X158 VOUT+.t36 two_stage_opamp_dummy_magic_23_0.cap_res_Y.t121 sky130_fd_pr__cap_mim_m3_1 l=2 w=2
X159 GNDA.t477 VDDA.t403 VDDA.t405 VDDA.t404 sky130_fd_pr__pfet_01v8 ad=0.4 pd=2.4 as=0.8 ps=4.8 w=2 l=0.15
X160 two_stage_opamp_dummy_magic_23_0.Y.t19 two_stage_opamp_dummy_magic_23_0.Vb1.t19 two_stage_opamp_dummy_magic_23_0.VD2.t20 GNDA.t109 sky130_fd_pr__nfet_01v8 ad=0.3 pd=1.9 as=0.3 ps=1.9 w=1.5 l=0.15
X161 two_stage_opamp_dummy_magic_23_0.V_source.t23 two_stage_opamp_dummy_magic_23_0.V_tail_gate.t14 GNDA.t152 GNDA.t151 sky130_fd_pr__nfet_01v8 ad=0.5 pd=2.9 as=0.5 ps=2.9 w=2.5 l=0.15
X162 two_stage_opamp_dummy_magic_23_0.V_source.t22 two_stage_opamp_dummy_magic_23_0.V_tail_gate.t15 GNDA.t168 GNDA.t167 sky130_fd_pr__nfet_01v8 ad=0.5 pd=2.9 as=0.5 ps=2.9 w=2.5 l=0.15
X163 VDDA.t152 bgr_11_0.PFET_GATE_10uA.t13 two_stage_opamp_dummy_magic_23_0.Vb1.t1 VDDA.t151 sky130_fd_pr__pfet_01v8 ad=0.2 pd=1.4 as=0.2 ps=1.4 w=1 l=0.15
X164 VDDA.t88 two_stage_opamp_dummy_magic_23_0.Vb3.t12 two_stage_opamp_dummy_magic_23_0.VD4.t6 VDDA.t87 sky130_fd_pr__pfet_01v8 ad=0.7 pd=3.9 as=0.7 ps=3.9 w=3.5 l=0.2
X165 VOUT-.t42 two_stage_opamp_dummy_magic_23_0.cap_res_X.t115 sky130_fd_pr__cap_mim_m3_1 l=2 w=2
X166 VOUT-.t43 two_stage_opamp_dummy_magic_23_0.cap_res_X.t114 sky130_fd_pr__cap_mim_m3_1 l=2 w=2
X167 VOUT+.t37 two_stage_opamp_dummy_magic_23_0.cap_res_Y.t120 sky130_fd_pr__cap_mim_m3_1 l=2 w=2
X168 VDDA.t513 GNDA.t354 sky130_fd_pr__cap_mim_m3_1 l=2 w=2
X169 two_stage_opamp_dummy_magic_23_0.err_amp_mir.t13 VDDA.t406 VDDA.t408 VDDA.t407 sky130_fd_pr__pfet_01v8 ad=0.1 pd=0.9 as=0.2 ps=1.8 w=0.5 l=0.15
X170 VDDA.t514 GNDA.t353 sky130_fd_pr__cap_mim_m3_1 l=2 w=2
X171 VOUT+.t38 two_stage_opamp_dummy_magic_23_0.cap_res_Y.t119 sky130_fd_pr__cap_mim_m3_1 l=2 w=2
X172 VDDA.t402 VDDA.t400 two_stage_opamp_dummy_magic_23_0.V_CMFB_S1.t6 VDDA.t401 sky130_fd_pr__pfet_01v8 ad=0.4 pd=2.8 as=0.2 ps=1.4 w=1 l=0.15
X173 VDDA.t515 GNDA.t352 sky130_fd_pr__cap_mim_m3_1 l=2 w=2
X174 two_stage_opamp_dummy_magic_23_0.V_CMFB_S1.t3 bgr_11_0.PFET_GATE_10uA.t14 VDDA.t48 VDDA.t47 sky130_fd_pr__pfet_01v8 ad=0.2 pd=1.4 as=0.2 ps=1.4 w=1 l=0.15
X175 VOUT+.t39 two_stage_opamp_dummy_magic_23_0.cap_res_Y.t118 sky130_fd_pr__cap_mim_m3_1 l=2 w=2
X176 two_stage_opamp_dummy_magic_23_0.X.t4 two_stage_opamp_dummy_magic_23_0.VD3.t3 two_stage_opamp_dummy_magic_23_0.VD3.t5 two_stage_opamp_dummy_magic_23_0.VD3.t4 sky130_fd_pr__pfet_01v8 ad=0.7 pd=3.9 as=1.4 ps=7.8 w=3.5 l=0.2
X177 VDDA.t516 GNDA.t351 sky130_fd_pr__cap_mim_m3_1 l=2 w=2
X178 VOUT+.t40 two_stage_opamp_dummy_magic_23_0.cap_res_Y.t117 sky130_fd_pr__cap_mim_m3_1 l=2 w=2
X179 VOUT+.t41 two_stage_opamp_dummy_magic_23_0.cap_res_Y.t116 sky130_fd_pr__cap_mim_m3_1 l=2 w=2
X180 VOUT-.t44 two_stage_opamp_dummy_magic_23_0.cap_res_X.t113 sky130_fd_pr__cap_mim_m3_1 l=2 w=2
X181 VOUT+.t42 two_stage_opamp_dummy_magic_23_0.cap_res_Y.t115 sky130_fd_pr__cap_mim_m3_1 l=2 w=2
X182 VDDA.t517 GNDA.t350 sky130_fd_pr__cap_mim_m3_1 l=2 w=2
X183 VDDA.t518 GNDA.t349 sky130_fd_pr__cap_mim_m3_1 l=2 w=2
X184 VDDA.t519 GNDA.t348 sky130_fd_pr__cap_mim_m3_1 l=2 w=2
X185 two_stage_opamp_dummy_magic_23_0.VD3.t32 two_stage_opamp_dummy_magic_23_0.Vb2.t13 two_stage_opamp_dummy_magic_23_0.X.t12 two_stage_opamp_dummy_magic_23_0.VD3.t31 sky130_fd_pr__pfet_01v8 ad=0.7 pd=3.9 as=0.7 ps=3.9 w=3.5 l=0.2
X186 VOUT+.t10 two_stage_opamp_dummy_magic_23_0.Y.t30 VDDA.t301 VDDA.t300 sky130_fd_pr__pfet_01v8 ad=1.2 pd=6.4 as=1.2 ps=6.4 w=6 l=0.15
X187 VOUT-.t45 two_stage_opamp_dummy_magic_23_0.cap_res_X.t112 sky130_fd_pr__cap_mim_m3_1 l=2 w=2
X188 bgr_11_0.START_UP_NFET1.t0 bgr_11_0.START_UP_NFET1 GNDA.t166 GNDA.t165 sky130_fd_pr__nfet_01v8 ad=0.2 pd=1.4 as=0.4 ps=2.8 w=1 l=10
X189 bgr_11_0.1st_Vout_2.t15 bgr_11_0.cap_res2.t16 sky130_fd_pr__cap_mim_m3_1 l=2 w=2
X190 VOUT-.t46 two_stage_opamp_dummy_magic_23_0.cap_res_X.t111 sky130_fd_pr__cap_mim_m3_1 l=2 w=2
X191 VOUT+.t43 two_stage_opamp_dummy_magic_23_0.cap_res_Y.t114 sky130_fd_pr__cap_mim_m3_1 l=2 w=2
X192 VDDA.t520 GNDA.t347 sky130_fd_pr__cap_mim_m3_1 l=2 w=2
X193 bgr_11_0.PFET_GATE_10uA.t7 bgr_11_0.1st_Vout_2.t16 VDDA.t66 VDDA.t65 sky130_fd_pr__pfet_01v8 ad=0.2 pd=1.4 as=0.2 ps=1.4 w=1 l=0.2
X194 VDDA.t521 GNDA.t346 sky130_fd_pr__cap_mim_m3_1 l=2 w=2
X195 two_stage_opamp_dummy_magic_23_0.VD2.t6 VIN+.t1 two_stage_opamp_dummy_magic_23_0.V_source.t33 GNDA.t25 sky130_fd_pr__nfet_01v8 ad=0.3 pd=1.9 as=0.3 ps=1.9 w=1.5 l=0.15
X196 two_stage_opamp_dummy_magic_23_0.V_CMFB_S2.t13 two_stage_opamp_dummy_magic_23_0.X.t29 VDDA.t181 GNDA.t146 sky130_fd_pr__nfet_01v8 ad=0.6 pd=3.4 as=0.6 ps=3.4 w=3 l=0.15
X197 bgr_11_0.V_TOP.t22 VDDA.t427 sky130_fd_pr__cap_mim_m3_1 l=2 w=2
X198 two_stage_opamp_dummy_magic_23_0.V_CMFB_S3.t9 two_stage_opamp_dummy_magic_23_0.Y.t31 GNDA.t199 VDDA.t299 sky130_fd_pr__pfet_01v8 ad=0.4 pd=2.4 as=0.4 ps=2.4 w=2 l=0.15
X199 two_stage_opamp_dummy_magic_23_0.VD2.t5 VIN+.t2 two_stage_opamp_dummy_magic_23_0.V_source.t30 GNDA.t26 sky130_fd_pr__nfet_01v8 ad=0.3 pd=1.9 as=0.3 ps=1.9 w=1.5 l=0.15
X200 two_stage_opamp_dummy_magic_23_0.V_p_mir.t3 VIN+.t3 two_stage_opamp_dummy_magic_23_0.V_tail_gate.t6 GNDA.t151 sky130_fd_pr__nfet_01v8 ad=0.3 pd=1.9 as=0.3 ps=1.9 w=1.5 l=0.15
X201 VOUT+.t44 two_stage_opamp_dummy_magic_23_0.cap_res_Y.t113 sky130_fd_pr__cap_mim_m3_1 l=2 w=2
X202 VOUT+.t45 two_stage_opamp_dummy_magic_23_0.cap_res_Y.t112 sky130_fd_pr__cap_mim_m3_1 l=2 w=2
X203 VDDA.t522 GNDA.t345 sky130_fd_pr__cap_mim_m3_1 l=2 w=2
X204 VDDA.t399 VDDA.t397 two_stage_opamp_dummy_magic_23_0.VD4.t17 VDDA.t398 sky130_fd_pr__pfet_01v8 ad=1.4 pd=7.8 as=0.7 ps=3.9 w=3.5 l=0.2
X205 a_7460_6300.t16 two_stage_opamp_dummy_magic_23_0.V_err_amp_ref.t12 two_stage_opamp_dummy_magic_23_0.V_err_gate.t5 VDDA.t74 sky130_fd_pr__pfet_01v8 ad=0.1 pd=0.9 as=0.1 ps=0.9 w=0.5 l=0.15
X206 VDDA.t523 GNDA.t344 sky130_fd_pr__cap_mim_m3_1 l=2 w=2
X207 VOUT-.t47 two_stage_opamp_dummy_magic_23_0.cap_res_X.t110 sky130_fd_pr__cap_mim_m3_1 l=2 w=2
X208 VDDA.t524 GNDA.t343 sky130_fd_pr__cap_mim_m3_1 l=2 w=2
X209 VOUT+.t46 two_stage_opamp_dummy_magic_23_0.cap_res_Y.t111 sky130_fd_pr__cap_mim_m3_1 l=2 w=2
X210 GNDA.t18 two_stage_opamp_dummy_magic_23_0.V_tail_gate.t16 two_stage_opamp_dummy_magic_23_0.V_source.t21 GNDA.t17 sky130_fd_pr__nfet_01v8 ad=0.5 pd=2.9 as=0.5 ps=2.9 w=2.5 l=0.15
X211 VDDA.t525 GNDA.t342 sky130_fd_pr__cap_mim_m3_1 l=2 w=2
X212 a_6350_25058.t0 bgr_11_0.Vin+.t1 GNDA.t35 sky130_fd_pr__res_xhigh_po_0p35 l=6
X213 bgr_11_0.1st_Vout_2.t7 bgr_11_0.V_CUR_REF_REG.t3 bgr_11_0.V_p_2.t10 GNDA.t574 sky130_fd_pr__nfet_01v8 ad=0.1 pd=0.9 as=0.1 ps=0.9 w=0.5 l=0.2
X214 a_8260_1600.t4 two_stage_opamp_dummy_magic_23_0.Vb1.t10 two_stage_opamp_dummy_magic_23_0.Vb1.t11 GNDA.t28 sky130_fd_pr__nfet_01v8 ad=0.3 pd=1.9 as=0.3 ps=1.9 w=1.5 l=0.15
X215 VDDA.t526 GNDA.t341 sky130_fd_pr__cap_mim_m3_1 l=2 w=2
X216 two_stage_opamp_dummy_magic_23_0.V_CMFB_S1.t13 two_stage_opamp_dummy_magic_23_0.X.t30 GNDA.t180 VDDA.t260 sky130_fd_pr__pfet_01v8 ad=0.4 pd=2.4 as=0.4 ps=2.4 w=2 l=0.15
X217 VOUT-.t48 two_stage_opamp_dummy_magic_23_0.cap_res_X.t109 sky130_fd_pr__cap_mim_m3_1 l=2 w=2
X218 VOUT+.t47 two_stage_opamp_dummy_magic_23_0.cap_res_Y.t110 sky130_fd_pr__cap_mim_m3_1 l=2 w=2
X219 VOUT-.t49 two_stage_opamp_dummy_magic_23_0.cap_res_X.t108 sky130_fd_pr__cap_mim_m3_1 l=2 w=2
X220 two_stage_opamp_dummy_magic_23_0.VD3.t14 VDDA.t394 VDDA.t396 VDDA.t395 sky130_fd_pr__pfet_01v8 ad=0.7 pd=3.9 as=1.4 ps=7.8 w=3.5 l=0.2
X221 VDDA.t527 GNDA.t340 sky130_fd_pr__cap_mim_m3_1 l=2 w=2
X222 VDDA.t528 GNDA.t339 sky130_fd_pr__cap_mim_m3_1 l=2 w=2
X223 VOUT-.t50 two_stage_opamp_dummy_magic_23_0.cap_res_X.t107 sky130_fd_pr__cap_mim_m3_1 l=2 w=2
X224 VDDA.t529 GNDA.t338 sky130_fd_pr__cap_mim_m3_1 l=2 w=2
X225 bgr_11_0.1st_Vout_2.t10 bgr_11_0.V_mir2.t18 VDDA.t461 VDDA.t460 sky130_fd_pr__pfet_01v8 ad=0.2 pd=1.4 as=0.2 ps=1.4 w=1 l=0.2
X226 bgr_11_0.V_TOP.t13 bgr_11_0.1st_Vout_1.t14 VDDA.t62 VDDA.t61 sky130_fd_pr__pfet_01v8 ad=0.2 pd=1.4 as=0.2 ps=1.4 w=1 l=0.2
X227 VDDA.t289 two_stage_opamp_dummy_magic_23_0.Y.t32 two_stage_opamp_dummy_magic_23_0.V_CMFB_S4.t12 GNDA.t198 sky130_fd_pr__nfet_01v8 ad=0.6 pd=3.4 as=0.6 ps=3.4 w=3 l=0.15
X228 VOUT-.t51 two_stage_opamp_dummy_magic_23_0.cap_res_X.t106 sky130_fd_pr__cap_mim_m3_1 l=2 w=2
X229 bgr_11_0.V_CUR_REF_REG.t2 VDDA.t391 VDDA.t393 VDDA.t392 sky130_fd_pr__pfet_01v8 ad=0.2 pd=1.4 as=0.4 ps=2.8 w=1 l=0.15
X230 VDDA.t110 bgr_11_0.PFET_GATE_10uA.t15 two_stage_opamp_dummy_magic_23_0.V_tail_gate.t2 VDDA.t109 sky130_fd_pr__pfet_01v8 ad=0.2 pd=1.4 as=0.2 ps=1.4 w=1 l=0.15
X231 VDDA.t530 GNDA.t337 sky130_fd_pr__cap_mim_m3_1 l=2 w=2
X232 VOUT-.t52 two_stage_opamp_dummy_magic_23_0.cap_res_X.t105 sky130_fd_pr__cap_mim_m3_1 l=2 w=2
X233 VOUT-.t53 two_stage_opamp_dummy_magic_23_0.cap_res_X.t104 sky130_fd_pr__cap_mim_m3_1 l=2 w=2
X234 VOUT-.t54 two_stage_opamp_dummy_magic_23_0.cap_res_X.t103 sky130_fd_pr__cap_mim_m3_1 l=2 w=2
X235 VDDA.t531 GNDA.t336 sky130_fd_pr__cap_mim_m3_1 l=2 w=2
X236 VDDA.t262 two_stage_opamp_dummy_magic_23_0.X.t31 VOUT-.t13 VDDA.t261 sky130_fd_pr__pfet_01v8 ad=1.2 pd=6.4 as=1.2 ps=6.4 w=6 l=0.15
X237 bgr_11_0.1st_Vout_1.t8 bgr_11_0.Vin+.t6 bgr_11_0.V_p_1.t4 GNDA.t575 sky130_fd_pr__nfet_01v8 ad=0.1 pd=0.9 as=0.1 ps=0.9 w=0.5 l=0.2
X238 two_stage_opamp_dummy_magic_23_0.V_tail_gate.t10 bgr_11_0.PFET_GATE_10uA.t16 VDDA.t448 VDDA.t447 sky130_fd_pr__pfet_01v8 ad=0.2 pd=1.4 as=0.2 ps=1.4 w=1 l=0.15
X239 bgr_11_0.V_TOP.t23 VDDA.t428 sky130_fd_pr__cap_mim_m3_1 l=2 w=2
X240 VDDA.t532 GNDA.t335 sky130_fd_pr__cap_mim_m3_1 l=2 w=2
X241 bgr_11_0.1st_Vout_1.t5 bgr_11_0.V_mir1.t17 VDDA.t135 VDDA.t134 sky130_fd_pr__pfet_01v8 ad=0.2 pd=1.4 as=0.2 ps=1.4 w=1 l=0.2
X242 GNDA.t43 two_stage_opamp_dummy_magic_23_0.err_amp_mir.t9 two_stage_opamp_dummy_magic_23_0.err_amp_mir.t10 GNDA.t42 sky130_fd_pr__nfet_01v8 ad=0.1 pd=0.9 as=0.1 ps=0.9 w=0.5 l=0.15
X243 VOUT-.t55 two_stage_opamp_dummy_magic_23_0.cap_res_X.t102 sky130_fd_pr__cap_mim_m3_1 l=2 w=2
X244 VOUT+.t48 two_stage_opamp_dummy_magic_23_0.cap_res_Y.t109 sky130_fd_pr__cap_mim_m3_1 l=2 w=2
X245 VOUT+.t49 two_stage_opamp_dummy_magic_23_0.cap_res_Y.t108 sky130_fd_pr__cap_mim_m3_1 l=2 w=2
X246 VOUT+.t50 two_stage_opamp_dummy_magic_23_0.cap_res_Y.t107 sky130_fd_pr__cap_mim_m3_1 l=2 w=2
X247 VOUT+.t51 two_stage_opamp_dummy_magic_23_0.cap_res_Y.t106 sky130_fd_pr__cap_mim_m3_1 l=2 w=2
X248 bgr_11_0.START_UP.t5 bgr_11_0.V_TOP.t24 VDDA.t33 VDDA.t32 sky130_fd_pr__pfet_01v8 ad=0.6 pd=3.4 as=0.6 ps=3.4 w=3 l=0.5
X249 VDDA.t204 two_stage_opamp_dummy_magic_23_0.V_err_gate.t18 two_stage_opamp_dummy_magic_23_0.V_err_p.t10 VDDA.t203 sky130_fd_pr__pfet_01v8 ad=0.1 pd=0.9 as=0.1 ps=0.9 w=0.5 l=0.15
X250 two_stage_opamp_dummy_magic_23_0.Y.t7 two_stage_opamp_dummy_magic_23_0.Vb1.t20 two_stage_opamp_dummy_magic_23_0.VD2.t19 GNDA.t25 sky130_fd_pr__nfet_01v8 ad=0.3 pd=1.9 as=0.3 ps=1.9 w=1.5 l=0.15
X251 VDDA.t533 GNDA.t334 sky130_fd_pr__cap_mim_m3_1 l=2 w=2
X252 VDDA.t534 GNDA.t333 sky130_fd_pr__cap_mim_m3_1 l=2 w=2
X253 two_stage_opamp_dummy_magic_23_0.Y.t8 two_stage_opamp_dummy_magic_23_0.Vb1.t21 two_stage_opamp_dummy_magic_23_0.VD2.t18 GNDA.t26 sky130_fd_pr__nfet_01v8 ad=0.3 pd=1.9 as=0.3 ps=1.9 w=1.5 l=0.15
X254 VDDA.t535 GNDA.t332 sky130_fd_pr__cap_mim_m3_1 l=2 w=2
X255 VOUT+.t52 two_stage_opamp_dummy_magic_23_0.cap_res_Y.t105 sky130_fd_pr__cap_mim_m3_1 l=2 w=2
X256 two_stage_opamp_dummy_magic_23_0.V_source.t20 two_stage_opamp_dummy_magic_23_0.V_tail_gate.t17 GNDA.t120 GNDA.t119 sky130_fd_pr__nfet_01v8 ad=0.5 pd=2.9 as=0.5 ps=2.9 w=2.5 l=0.15
X257 two_stage_opamp_dummy_magic_23_0.VD3.t30 two_stage_opamp_dummy_magic_23_0.Vb2.t14 two_stage_opamp_dummy_magic_23_0.X.t0 two_stage_opamp_dummy_magic_23_0.VD3.t29 sky130_fd_pr__pfet_01v8 ad=0.7 pd=3.9 as=0.7 ps=3.9 w=3.5 l=0.2
X258 GNDA.t557 GNDA.t555 VOUT+.t16 GNDA.t556 sky130_fd_pr__nfet_01v8 ad=2.8 pd=14.8 as=1.4 ps=7.4 w=7 l=0.6
X259 GNDA.t485 GNDA.t486 bgr_11_0.sky130_fd_pr__rf_pnp_05v5_W3p40L3p40_25.Emitter.t8 sky130_fd_pr__pnp_05v5_W3p40L3p40
**devattr s=462400,2720
X260 bgr_11_0.Vin+.t0 bgr_11_0.sky130_fd_pr__rf_pnp_05v5_W3p40L3p40_25.Emitter.t0 GNDA.t16 sky130_fd_pr__res_xhigh_po_0p35 l=2.3
X261 VDDA.t536 GNDA.t331 sky130_fd_pr__cap_mim_m3_1 l=2 w=2