* PEX produced on Fri Jul  4 08:03:05 AM CEST 2025 using /foss/tools/osic-multitool/iic-pex.sh with m=3 and s=1
* NGSPICE file created from bgr_opamp_dummy_magic_7.ext - technology: sky130A

.subckt bgr_opamp_dummy_magic_7 VDDA GNDA VOUT+ VOUT- VIN+ VIN-
X0 VDDA.t299 bgr_0.V_TOP.t14 bgr_0.Vin-.t3 VDDA.t298 sky130_fd_pr__pfet_01v8 ad=0.6 pd=3.4 as=0.6 ps=3.4 w=3 l=0.5
X1 two_stage_opamp_dummy_magic_0.err_amp_mir.t8 two_stage_opamp_dummy_magic_0.err_amp_mir.t7 GNDA.t219 GNDA.t218 sky130_fd_pr__nfet_01v8 ad=0.1 pd=0.9 as=0.1 ps=0.9 w=0.5 l=0.15
X2 bgr_0.1st_Vout_1.t11 bgr_0.cap_res1.t19 sky130_fd_pr__cap_mim_m3_1 l=2 w=2
X3 bgr_0.V_TOP.t15 VDDA.t297 sky130_fd_pr__cap_mim_m3_1 l=2 w=2
X4 two_stage_opamp_dummy_magic_0.VD2.t18 GNDA.t311 GNDA.t313 GNDA.t312 sky130_fd_pr__nfet_01v8 ad=0.3 pd=1.9 as=0.6 ps=3.8 w=1.5 l=0.15
X5 two_stage_opamp_dummy_magic_0.VOUT-.t19 two_stage_opamp_dummy_magic_0.cap_res_X.t138 sky130_fd_pr__cap_mim_m3_1 l=2 w=2
X6 GNDA.t224 GNDA.t310 bgr_0.Vbe2.t7 sky130_fd_pr__pnp_05v5_W3p40L3p40
**devattr s=462400,2720
X7 two_stage_opamp_dummy_magic_0.V_CMFB_S1.t9 two_stage_opamp_dummy_magic_0.X.t13 GNDA.t15 VDDA.t6 sky130_fd_pr__pfet_01v8 ad=0.4 pd=2.4 as=0.4 ps=2.4 w=2 l=0.15
X8 two_stage_opamp_dummy_magic_0.VOUT-.t20 two_stage_opamp_dummy_magic_0.cap_res_X.t137 sky130_fd_pr__cap_mim_m3_1 l=2 w=2
X9 two_stage_opamp_dummy_magic_0.VOUT-.t21 two_stage_opamp_dummy_magic_0.cap_res_X.t136 sky130_fd_pr__cap_mim_m3_1 l=2 w=2
X10 bgr_0.NFET_GATE_10uA.t2 bgr_0.NFET_GATE_10uA.t1 GNDA.t332 GNDA.t331 sky130_fd_pr__nfet_01v8 ad=0.2 pd=1.4 as=0.2 ps=1.4 w=1 l=0.15
X11 bgr_0.1st_Vout_1.t12 bgr_0.cap_res1.t18 sky130_fd_pr__cap_mim_m3_1 l=2 w=2
X12 bgr_0.V_TOP.t16 VDDA.t296 sky130_fd_pr__cap_mim_m3_1 l=2 w=2
X13 VDDA.t86 bgr_0.V_mir2.t12 bgr_0.V_mir2.t13 VDDA.t85 sky130_fd_pr__pfet_01v8 ad=0.2 pd=1.4 as=0.2 ps=1.4 w=1 l=0.2
X14 two_stage_opamp_dummy_magic_0.V_err_gate.t6 two_stage_opamp_dummy_magic_0.V_err_amp_ref.t7 two_stage_opamp_dummy_magic_0.V_err_mir_p.t11 VDDA.t75 sky130_fd_pr__pfet_01v8 ad=0.1 pd=0.9 as=0.1 ps=0.9 w=0.5 l=0.15
X15 two_stage_opamp_dummy_magic_0.VOUT-.t22 two_stage_opamp_dummy_magic_0.cap_res_X.t135 sky130_fd_pr__cap_mim_m3_1 l=2 w=2
X16 two_stage_opamp_dummy_magic_0.VOUT-.t23 two_stage_opamp_dummy_magic_0.cap_res_X.t134 sky130_fd_pr__cap_mim_m3_1 l=2 w=2
X17 a_8420_8490.t9 two_stage_opamp_dummy_magic_0.Vb2.t11 two_stage_opamp_dummy_magic_0.VD3.t26 two_stage_opamp_dummy_magic_0.VD3.t25 sky130_fd_pr__pfet_01v8 ad=0.7 pd=3.9 as=0.7 ps=3.9 w=3.5 l=0.2
X18 VDDA.t453 two_stage_opamp_dummy_magic_0.Y.t13 two_stage_opamp_dummy_magic_0.VOUT+.t12 VDDA.t452 sky130_fd_pr__pfet_01v8 ad=1.2 pd=6.4 as=1.2 ps=6.4 w=6 l=0.15
X19 two_stage_opamp_dummy_magic_0.X.t11 GNDA.t307 GNDA.t309 GNDA.t308 sky130_fd_pr__nfet_01v8 ad=0.3 pd=1.9 as=0.6 ps=3.8 w=1.5 l=0.15
X20 two_stage_opamp_dummy_magic_0.VOUT-.t24 two_stage_opamp_dummy_magic_0.cap_res_X.t133 sky130_fd_pr__cap_mim_m3_1 l=2 w=2
X21 two_stage_opamp_dummy_magic_0.VOUT-.t25 two_stage_opamp_dummy_magic_0.cap_res_X.t132 sky130_fd_pr__cap_mim_m3_1 l=2 w=2
X22 VDDA.t195 two_stage_opamp_dummy_magic_0.Y.t14 two_stage_opamp_dummy_magic_0.VOUT+.t11 VDDA.t194 sky130_fd_pr__pfet_01v8 ad=1.2 pd=6.4 as=1.2 ps=6.4 w=6 l=0.15
X23 VDDA.t97 bgr_0.PFET_GATE_10uA.t10 two_stage_opamp_dummy_magic_0.V_CMFB_S3.t3 VDDA.t96 sky130_fd_pr__pfet_01v8 ad=0.2 pd=1.4 as=0.2 ps=1.4 w=1 l=0.15
X24 two_stage_opamp_dummy_magic_0.VOUT-.t26 two_stage_opamp_dummy_magic_0.cap_res_X.t131 sky130_fd_pr__cap_mim_m3_1 l=2 w=2
X25 a_14520_5068.t1 two_stage_opamp_dummy_magic_0.V_CMFB_S4.t13 GNDA.t108 sky130_fd_pr__res_xhigh_po_0p35 l=1.75
X26 bgr_0.V_TOP.t17 VDDA.t295 sky130_fd_pr__cap_mim_m3_1 l=2 w=2
X27 two_stage_opamp_dummy_magic_0.VOUT-.t17 GNDA.t304 GNDA.t306 GNDA.t305 sky130_fd_pr__nfet_01v8 ad=1.4 pd=7.4 as=2.8 ps=14.8 w=7 l=0.6
X28 VDDA.t71 two_stage_opamp_dummy_magic_0.V_err_gate.t14 two_stage_opamp_dummy_magic_0.V_err_mir_p.t0 VDDA.t70 sky130_fd_pr__pfet_01v8 ad=0.1 pd=0.9 as=0.1 ps=0.9 w=0.5 l=0.15
X29 VDDA.t435 bgr_0.V_mir1.t17 bgr_0.1st_Vout_1.t8 VDDA.t434 sky130_fd_pr__pfet_01v8 ad=0.2 pd=1.4 as=0.2 ps=1.4 w=1 l=0.2
X30 two_stage_opamp_dummy_magic_0.VOUT+.t19 two_stage_opamp_dummy_magic_0.cap_res_Y.t138 sky130_fd_pr__cap_mim_m3_1 l=2 w=2
X31 bgr_0.START_UP_NFET1.t0 bgr_0.START_UP_NFET1 GNDA.t129 GNDA.t128 sky130_fd_pr__nfet_01v8 ad=0.2 pd=1.4 as=0.4 ps=2.8 w=1 l=10
X32 two_stage_opamp_dummy_magic_0.VOUT+.t20 two_stage_opamp_dummy_magic_0.cap_res_Y.t137 sky130_fd_pr__cap_mim_m3_1 l=2 w=2
X33 two_stage_opamp_dummy_magic_0.VOUT+.t21 two_stage_opamp_dummy_magic_0.cap_res_Y.t136 sky130_fd_pr__cap_mim_m3_1 l=2 w=2
X34 two_stage_opamp_dummy_magic_0.VOUT-.t27 two_stage_opamp_dummy_magic_0.cap_res_X.t130 sky130_fd_pr__cap_mim_m3_1 l=2 w=2
X35 two_stage_opamp_dummy_magic_0.VOUT-.t28 two_stage_opamp_dummy_magic_0.cap_res_X.t129 sky130_fd_pr__cap_mim_m3_1 l=2 w=2
X36 two_stage_opamp_dummy_magic_0.VOUT-.t29 two_stage_opamp_dummy_magic_0.cap_res_X.t128 sky130_fd_pr__cap_mim_m3_1 l=2 w=2
X37 two_stage_opamp_dummy_magic_0.VOUT+.t22 two_stage_opamp_dummy_magic_0.cap_res_Y.t135 sky130_fd_pr__cap_mim_m3_1 l=2 w=2
X38 bgr_0.1st_Vout_1.t13 bgr_0.cap_res1.t17 sky130_fd_pr__cap_mim_m3_1 l=2 w=2
X39 two_stage_opamp_dummy_magic_0.V_p_mir.t2 bgr_0.TAIL_CUR_MIR_BIAS.t12 GNDA.t52 GNDA.t51 sky130_fd_pr__nfet_01v8 ad=0.5 pd=2.9 as=0.5 ps=2.9 w=2.5 l=0.15
X40 VDDA.t17 two_stage_opamp_dummy_magic_0.X.t14 two_stage_opamp_dummy_magic_0.VOUT-.t2 VDDA.t16 sky130_fd_pr__pfet_01v8 ad=1.2 pd=6.4 as=1.2 ps=6.4 w=6 l=0.15
X41 two_stage_opamp_dummy_magic_0.V_CMFB_S4.t12 two_stage_opamp_dummy_magic_0.Y.t15 VDDA.t213 GNDA.t160 sky130_fd_pr__nfet_01v8 ad=0.6 pd=3.4 as=0.6 ps=3.4 w=3 l=0.15
X42 two_stage_opamp_dummy_magic_0.VOUT-.t30 two_stage_opamp_dummy_magic_0.cap_res_X.t127 sky130_fd_pr__cap_mim_m3_1 l=2 w=2
X43 bgr_0.V_mir2.t1 two_stage_opamp_dummy_magic_0.V_err_amp_ref.t8 bgr_0.V_p_2.t5 GNDA.t47 sky130_fd_pr__nfet_01v8 ad=0.1 pd=0.9 as=0.1 ps=0.9 w=0.5 l=0.2
X44 bgr_0.Vin-.t4 bgr_0.V_TOP.t18 VDDA.t294 VDDA.t293 sky130_fd_pr__pfet_01v8 ad=0.6 pd=3.4 as=0.6 ps=3.4 w=3 l=0.5
X45 VDDA.t414 VDDA.t412 two_stage_opamp_dummy_magic_0.V_err_gate.t9 VDDA.t413 sky130_fd_pr__pfet_01v8 ad=0.2 pd=1.8 as=0.1 ps=0.9 w=0.5 l=0.15
X46 GNDA.t49 bgr_0.NFET_GATE_10uA.t5 two_stage_opamp_dummy_magic_0.Vb2.t7 GNDA.t48 sky130_fd_pr__nfet_01v8 ad=0.2 pd=1.4 as=0.2 ps=1.4 w=1 l=0.15
X47 GNDA.t38 bgr_0.NFET_GATE_10uA.t6 two_stage_opamp_dummy_magic_0.Vb2.t6 GNDA.t37 sky130_fd_pr__nfet_01v8 ad=0.2 pd=1.4 as=0.2 ps=1.4 w=1 l=0.15
X48 two_stage_opamp_dummy_magic_0.V_err_p.t13 two_stage_opamp_dummy_magic_0.V_err_gate.t15 VDDA.t13 VDDA.t12 sky130_fd_pr__pfet_01v8 ad=0.1 pd=0.9 as=0.1 ps=0.9 w=0.5 l=0.15
X49 two_stage_opamp_dummy_magic_0.VOUT-.t31 two_stage_opamp_dummy_magic_0.cap_res_X.t126 sky130_fd_pr__cap_mim_m3_1 l=2 w=2
X50 two_stage_opamp_dummy_magic_0.VOUT+.t23 two_stage_opamp_dummy_magic_0.cap_res_Y.t134 sky130_fd_pr__cap_mim_m3_1 l=2 w=2
X51 a_8420_8490.t8 two_stage_opamp_dummy_magic_0.Vb2.t12 two_stage_opamp_dummy_magic_0.VD3.t24 two_stage_opamp_dummy_magic_0.VD3.t23 sky130_fd_pr__pfet_01v8 ad=0.7 pd=3.9 as=0.7 ps=3.9 w=3.5 l=0.2
X52 two_stage_opamp_dummy_magic_0.V_err_p.t0 two_stage_opamp_dummy_magic_0.V_tot.t4 two_stage_opamp_dummy_magic_0.err_amp_mir.t0 VDDA.t56 sky130_fd_pr__pfet_01v8 ad=0.1 pd=0.9 as=0.1 ps=0.9 w=0.5 l=0.15
X53 two_stage_opamp_dummy_magic_0.Y.t10 GNDA.t301 GNDA.t303 GNDA.t302 sky130_fd_pr__nfet_01v8 ad=0.3 pd=1.9 as=0.6 ps=3.8 w=1.5 l=0.15
X54 two_stage_opamp_dummy_magic_0.Y.t11 two_stage_opamp_dummy_magic_0.Vb1.t6 two_stage_opamp_dummy_magic_0.VD1.t13 GNDA.t314 sky130_fd_pr__nfet_01v8 ad=0.3 pd=1.9 as=0.3 ps=1.9 w=1.5 l=0.15
X55 two_stage_opamp_dummy_magic_0.VOUT+.t24 two_stage_opamp_dummy_magic_0.cap_res_Y.t133 sky130_fd_pr__cap_mim_m3_1 l=2 w=2
X56 two_stage_opamp_dummy_magic_0.VOUT-.t4 two_stage_opamp_dummy_magic_0.V_b_2nd_stage.t2 GNDA.t34 GNDA.t33 sky130_fd_pr__nfet_01v8 ad=1.4 pd=7.4 as=1.4 ps=7.4 w=7 l=0.6
X57 two_stage_opamp_dummy_magic_0.V_CMFB_S3.t14 two_stage_opamp_dummy_magic_0.Y.t16 GNDA.t340 VDDA.t449 sky130_fd_pr__pfet_01v8 ad=0.4 pd=2.4 as=0.4 ps=2.4 w=2 l=0.15
X58 bgr_0.1st_Vout_1.t7 bgr_0.Vin+.t6 bgr_0.V_p_1.t4 GNDA.t165 sky130_fd_pr__nfet_01v8 ad=0.1 pd=0.9 as=0.1 ps=0.9 w=0.5 l=0.2
X59 two_stage_opamp_dummy_magic_0.VOUT+.t25 two_stage_opamp_dummy_magic_0.cap_res_Y.t132 sky130_fd_pr__cap_mim_m3_1 l=2 w=2
X60 bgr_0.1st_Vout_2.t11 bgr_0.cap_res2.t19 sky130_fd_pr__cap_mim_m3_1 l=2 w=2
X61 GNDA.t61 bgr_0.TAIL_CUR_MIR_BIAS.t13 two_stage_opamp_dummy_magic_0.V_p.t23 GNDA.t60 sky130_fd_pr__nfet_01v8 ad=0.5 pd=2.9 as=0.5 ps=2.9 w=2.5 l=0.15
X62 VDDA.t411 VDDA.t409 bgr_0.V_TOP.t11 VDDA.t410 sky130_fd_pr__pfet_01v8 ad=0.4 pd=2.8 as=0.2 ps=1.4 w=1 l=0.2
X63 GNDA.t116 bgr_0.TAIL_CUR_MIR_BIAS.t14 two_stage_opamp_dummy_magic_0.V_p.t22 GNDA.t115 sky130_fd_pr__nfet_01v8 ad=0.5 pd=2.9 as=0.5 ps=2.9 w=2.5 l=0.15
X64 two_stage_opamp_dummy_magic_0.V_CMFB_S2.t9 two_stage_opamp_dummy_magic_0.X.t15 VDDA.t18 GNDA.t22 sky130_fd_pr__nfet_01v8 ad=0.6 pd=3.4 as=0.6 ps=3.4 w=3 l=0.15
X65 two_stage_opamp_dummy_magic_0.VD1.t19 VIN-.t0 two_stage_opamp_dummy_magic_0.V_p.t36 GNDA.t322 sky130_fd_pr__nfet_01v8 ad=0.3 pd=1.9 as=0.3 ps=1.9 w=1.5 l=0.15
X66 two_stage_opamp_dummy_magic_0.V_err_p.t12 two_stage_opamp_dummy_magic_0.V_err_gate.t16 VDDA.t15 VDDA.t14 sky130_fd_pr__pfet_01v8 ad=0.1 pd=0.9 as=0.1 ps=0.9 w=0.5 l=0.15
X67 two_stage_opamp_dummy_magic_0.VOUT+.t26 two_stage_opamp_dummy_magic_0.cap_res_Y.t131 sky130_fd_pr__cap_mim_m3_1 l=2 w=2
X68 GNDA.t40 bgr_0.NFET_GATE_10uA.t7 two_stage_opamp_dummy_magic_0.Vb2.t5 GNDA.t39 sky130_fd_pr__nfet_01v8 ad=0.2 pd=1.4 as=0.2 ps=1.4 w=1 l=0.15
X69 GNDA.t300 GNDA.t298 two_stage_opamp_dummy_magic_0.Vb2.t10 GNDA.t299 sky130_fd_pr__nfet_01v8 ad=0.4 pd=2.8 as=0.2 ps=1.4 w=1 l=0.15
X70 VDDA.t444 bgr_0.V_mir1.t18 bgr_0.1st_Vout_1.t9 VDDA.t443 sky130_fd_pr__pfet_01v8 ad=0.2 pd=1.4 as=0.2 ps=1.4 w=1 l=0.2
X71 two_stage_opamp_dummy_magic_0.VOUT-.t32 two_stage_opamp_dummy_magic_0.cap_res_X.t125 sky130_fd_pr__cap_mim_m3_1 l=2 w=2
X72 two_stage_opamp_dummy_magic_0.VOUT+.t27 two_stage_opamp_dummy_magic_0.cap_res_Y.t130 sky130_fd_pr__cap_mim_m3_1 l=2 w=2
X73 two_stage_opamp_dummy_magic_0.err_amp_out.t10 two_stage_opamp_dummy_magic_0.err_amp_mir.t17 GNDA.t215 GNDA.t214 sky130_fd_pr__nfet_01v8 ad=0.1 pd=0.9 as=0.1 ps=0.9 w=0.5 l=0.15
X74 two_stage_opamp_dummy_magic_0.VOUT+.t28 two_stage_opamp_dummy_magic_0.cap_res_Y.t129 sky130_fd_pr__cap_mim_m3_1 l=2 w=2
X75 two_stage_opamp_dummy_magic_0.VOUT+.t29 two_stage_opamp_dummy_magic_0.cap_res_Y.t128 sky130_fd_pr__cap_mim_m3_1 l=2 w=2
X76 two_stage_opamp_dummy_magic_0.VOUT-.t33 two_stage_opamp_dummy_magic_0.cap_res_X.t124 sky130_fd_pr__cap_mim_m3_1 l=2 w=2
X77 two_stage_opamp_dummy_magic_0.VD1.t3 VIN-.t1 two_stage_opamp_dummy_magic_0.V_p.t28 GNDA.t127 sky130_fd_pr__nfet_01v8 ad=0.3 pd=1.9 as=0.3 ps=1.9 w=1.5 l=0.15
X78 two_stage_opamp_dummy_magic_0.VOUT+.t30 two_stage_opamp_dummy_magic_0.cap_res_Y.t127 sky130_fd_pr__cap_mim_m3_1 l=2 w=2
X79 bgr_0.NFET_GATE_10uA.t0 bgr_0.PFET_GATE_10uA.t11 VDDA.t34 VDDA.t33 sky130_fd_pr__pfet_01v8 ad=0.2 pd=1.4 as=0.2 ps=1.4 w=1 l=0.15
X80 two_stage_opamp_dummy_magic_0.err_amp_out.t9 two_stage_opamp_dummy_magic_0.err_amp_mir.t18 GNDA.t217 GNDA.t216 sky130_fd_pr__nfet_01v8 ad=0.1 pd=0.9 as=0.1 ps=0.9 w=0.5 l=0.15
X81 bgr_0.1st_Vout_2.t12 bgr_0.cap_res2.t18 sky130_fd_pr__cap_mim_m3_1 l=2 w=2
X82 VDDA.t32 bgr_0.PFET_GATE_10uA.t12 bgr_0.TAIL_CUR_MIR_BIAS.t7 VDDA.t31 sky130_fd_pr__pfet_01v8 ad=0.2 pd=1.4 as=0.2 ps=1.4 w=1 l=0.15
X83 two_stage_opamp_dummy_magic_0.VOUT-.t34 two_stage_opamp_dummy_magic_0.cap_res_X.t123 sky130_fd_pr__cap_mim_m3_1 l=2 w=2
X84 VDDA.t408 VDDA.t406 bgr_0.NFET_GATE_10uA.t3 VDDA.t407 sky130_fd_pr__pfet_01v8 ad=0.4 pd=2.8 as=0.2 ps=1.4 w=1 l=0.15
X85 VDDA.t220 two_stage_opamp_dummy_magic_0.Y.t17 two_stage_opamp_dummy_magic_0.VOUT+.t10 VDDA.t219 sky130_fd_pr__pfet_01v8 ad=1.2 pd=6.4 as=1.2 ps=6.4 w=6 l=0.15
X86 VDDA.t26 bgr_0.1st_Vout_1.t14 bgr_0.V_TOP.t1 VDDA.t25 sky130_fd_pr__pfet_01v8 ad=0.2 pd=1.4 as=0.2 ps=1.4 w=1 l=0.2
X87 GNDA.t297 GNDA.t295 two_stage_opamp_dummy_magic_0.VD1.t16 GNDA.t296 sky130_fd_pr__nfet_01v8 ad=0.6 pd=3.8 as=0.3 ps=1.9 w=1.5 l=0.15
X88 two_stage_opamp_dummy_magic_0.VOUT+.t31 two_stage_opamp_dummy_magic_0.cap_res_Y.t126 sky130_fd_pr__cap_mim_m3_1 l=2 w=2
X89 two_stage_opamp_dummy_magic_0.VD4.t36 VDDA.t403 VDDA.t405 VDDA.t404 sky130_fd_pr__pfet_01v8 ad=0.7 pd=3.9 as=1.4 ps=7.8 w=3.5 l=0.2
X90 two_stage_opamp_dummy_magic_0.VOUT+.t32 two_stage_opamp_dummy_magic_0.cap_res_Y.t125 sky130_fd_pr__cap_mim_m3_1 l=2 w=2
X91 two_stage_opamp_dummy_magic_0.VOUT-.t35 two_stage_opamp_dummy_magic_0.cap_res_X.t122 sky130_fd_pr__cap_mim_m3_1 l=2 w=2
X92 two_stage_opamp_dummy_magic_0.VOUT+.t33 two_stage_opamp_dummy_magic_0.cap_res_Y.t124 sky130_fd_pr__cap_mim_m3_1 l=2 w=2
X93 VDDA.t193 bgr_0.V_mir2.t10 bgr_0.V_mir2.t11 VDDA.t192 sky130_fd_pr__pfet_01v8 ad=0.2 pd=1.4 as=0.2 ps=1.4 w=1 l=0.2
X94 two_stage_opamp_dummy_magic_0.VD4.t5 two_stage_opamp_dummy_magic_0.VD4.t3 a_10480_8490.t1 two_stage_opamp_dummy_magic_0.VD4.t4 sky130_fd_pr__pfet_01v8 ad=1.4 pd=7.8 as=0.7 ps=3.9 w=3.5 l=0.2
X95 GNDA.t68 bgr_0.NFET_GATE_10uA.t8 two_stage_opamp_dummy_magic_0.Vb3.t5 GNDA.t67 sky130_fd_pr__nfet_01v8 ad=0.2 pd=1.4 as=0.2 ps=1.4 w=1 l=0.15
X96 VDDA.t89 two_stage_opamp_dummy_magic_0.V_err_gate.t17 two_stage_opamp_dummy_magic_0.V_err_p.t11 VDDA.t88 sky130_fd_pr__pfet_01v8 ad=0.1 pd=0.9 as=0.1 ps=0.9 w=0.5 l=0.15
X97 two_stage_opamp_dummy_magic_0.VOUT-.t36 two_stage_opamp_dummy_magic_0.cap_res_X.t121 sky130_fd_pr__cap_mim_m3_1 l=2 w=2
X98 two_stage_opamp_dummy_magic_0.Vb3.t4 bgr_0.NFET_GATE_10uA.t9 GNDA.t70 GNDA.t69 sky130_fd_pr__nfet_01v8 ad=0.2 pd=1.4 as=0.2 ps=1.4 w=1 l=0.15
X99 GNDA.t294 GNDA.t292 two_stage_opamp_dummy_magic_0.VD1.t15 GNDA.t293 sky130_fd_pr__nfet_01v8 ad=0.6 pd=3.8 as=0.3 ps=1.9 w=1.5 l=0.15
X100 VDDA.t207 bgr_0.1st_Vout_1.t15 bgr_0.V_TOP.t7 VDDA.t206 sky130_fd_pr__pfet_01v8 ad=0.2 pd=1.4 as=0.2 ps=1.4 w=1 l=0.2
X101 two_stage_opamp_dummy_magic_0.VOUT+.t34 two_stage_opamp_dummy_magic_0.cap_res_Y.t123 sky130_fd_pr__cap_mim_m3_1 l=2 w=2
X102 bgr_0.V_TOP.t6 bgr_0.cap_res1.t20 GNDA.t85 sky130_fd_pr__res_high_po_0p35 l=2.05
X103 two_stage_opamp_dummy_magic_0.V_CMFB_S4.t11 two_stage_opamp_dummy_magic_0.Y.t18 VDDA.t98 GNDA.t74 sky130_fd_pr__nfet_01v8 ad=0.6 pd=3.4 as=0.6 ps=3.4 w=3 l=0.15
X104 two_stage_opamp_dummy_magic_0.V_p.t21 bgr_0.TAIL_CUR_MIR_BIAS.t15 GNDA.t342 GNDA.t341 sky130_fd_pr__nfet_01v8 ad=0.5 pd=2.9 as=0.5 ps=2.9 w=2.5 l=0.15
X105 a_11220_17410.t0 GNDA.t81 GNDA.t80 sky130_fd_pr__res_xhigh_po_0p35 l=6
X106 two_stage_opamp_dummy_magic_0.V_CMFB_S4.t10 two_stage_opamp_dummy_magic_0.Y.t19 VDDA.t169 GNDA.t112 sky130_fd_pr__nfet_01v8 ad=0.6 pd=3.4 as=0.6 ps=3.4 w=3 l=0.15
X107 two_stage_opamp_dummy_magic_0.V_err_mir_p.t1 two_stage_opamp_dummy_magic_0.V_err_gate.t18 VDDA.t91 VDDA.t90 sky130_fd_pr__pfet_01v8 ad=0.1 pd=0.9 as=0.1 ps=0.9 w=0.5 l=0.15
X108 two_stage_opamp_dummy_magic_0.VOUT-.t37 two_stage_opamp_dummy_magic_0.cap_res_X.t120 sky130_fd_pr__cap_mim_m3_1 l=2 w=2
X109 two_stage_opamp_dummy_magic_0.Vb1.t1 bgr_0.PFET_GATE_10uA.t13 VDDA.t66 VDDA.t65 sky130_fd_pr__pfet_01v8 ad=0.2 pd=1.4 as=0.2 ps=1.4 w=1 l=0.15
X110 GNDA.t291 GNDA.t289 two_stage_opamp_dummy_magic_0.X.t10 GNDA.t290 sky130_fd_pr__nfet_01v8 ad=0.6 pd=3.8 as=0.3 ps=1.9 w=1.5 l=0.15
X111 two_stage_opamp_dummy_magic_0.VOUT+.t35 two_stage_opamp_dummy_magic_0.cap_res_Y.t122 sky130_fd_pr__cap_mim_m3_1 l=2 w=2
X112 two_stage_opamp_dummy_magic_0.VOUT-.t18 a_5750_2276.t1 GNDA.t338 sky130_fd_pr__res_xhigh_po_0p35 l=2.63
X113 bgr_0.PFET_GATE_10uA.t3 bgr_0.1st_Vout_2.t13 VDDA.t179 VDDA.t178 sky130_fd_pr__pfet_01v8 ad=0.2 pd=1.4 as=0.2 ps=1.4 w=1 l=0.2
X114 two_stage_opamp_dummy_magic_0.VOUT+.t36 two_stage_opamp_dummy_magic_0.cap_res_Y.t121 sky130_fd_pr__cap_mim_m3_1 l=2 w=2
X115 GNDA.t118 bgr_0.TAIL_CUR_MIR_BIAS.t16 two_stage_opamp_dummy_magic_0.V_p.t20 GNDA.t117 sky130_fd_pr__nfet_01v8 ad=0.5 pd=2.9 as=0.5 ps=2.9 w=2.5 l=0.15
X116 two_stage_opamp_dummy_magic_0.VD4.t31 two_stage_opamp_dummy_magic_0.Vb3.t8 VDDA.t201 VDDA.t200 sky130_fd_pr__pfet_01v8 ad=0.7 pd=3.9 as=0.7 ps=3.9 w=3.5 l=0.2
X117 two_stage_opamp_dummy_magic_0.VOUT+.t37 two_stage_opamp_dummy_magic_0.cap_res_Y.t120 sky130_fd_pr__cap_mim_m3_1 l=2 w=2
X118 two_stage_opamp_dummy_magic_0.VOUT+.t38 two_stage_opamp_dummy_magic_0.cap_res_Y.t119 sky130_fd_pr__cap_mim_m3_1 l=2 w=2
X119 two_stage_opamp_dummy_magic_0.VOUT+.t39 two_stage_opamp_dummy_magic_0.cap_res_Y.t118 sky130_fd_pr__cap_mim_m3_1 l=2 w=2
X120 two_stage_opamp_dummy_magic_0.VOUT-.t38 two_stage_opamp_dummy_magic_0.cap_res_X.t119 sky130_fd_pr__cap_mim_m3_1 l=2 w=2
X121 two_stage_opamp_dummy_magic_0.VOUT-.t39 two_stage_opamp_dummy_magic_0.cap_res_X.t118 sky130_fd_pr__cap_mim_m3_1 l=2 w=2
X122 VDDA.t199 bgr_0.V_mir1.t10 bgr_0.V_mir1.t11 VDDA.t198 sky130_fd_pr__pfet_01v8 ad=0.2 pd=1.4 as=0.2 ps=1.4 w=1 l=0.2
X123 two_stage_opamp_dummy_magic_0.V_CMFB_S2.t8 two_stage_opamp_dummy_magic_0.X.t16 VDDA.t190 GNDA.t122 sky130_fd_pr__nfet_01v8 ad=0.6 pd=3.4 as=0.6 ps=3.4 w=3 l=0.15
X124 two_stage_opamp_dummy_magic_0.VOUT-.t40 two_stage_opamp_dummy_magic_0.cap_res_X.t117 sky130_fd_pr__cap_mim_m3_1 l=2 w=2
X125 two_stage_opamp_dummy_magic_0.VOUT-.t41 two_stage_opamp_dummy_magic_0.cap_res_X.t116 sky130_fd_pr__cap_mim_m3_1 l=2 w=2
X126 two_stage_opamp_dummy_magic_0.err_amp_mir.t12 two_stage_opamp_dummy_magic_0.err_amp_mir.t11 GNDA.t213 GNDA.t212 sky130_fd_pr__nfet_01v8 ad=0.1 pd=0.9 as=0.1 ps=0.9 w=0.5 l=0.15
X127 two_stage_opamp_dummy_magic_0.VOUT-.t42 two_stage_opamp_dummy_magic_0.cap_res_X.t115 sky130_fd_pr__cap_mim_m3_1 l=2 w=2
X128 bgr_0.1st_Vout_1.t16 bgr_0.cap_res1.t16 sky130_fd_pr__cap_mim_m3_1 l=2 w=2
X129 VDDA.t211 bgr_0.1st_Vout_2.t14 bgr_0.PFET_GATE_10uA.t6 VDDA.t210 sky130_fd_pr__pfet_01v8 ad=0.2 pd=1.4 as=0.2 ps=1.4 w=1 l=0.2
X130 two_stage_opamp_dummy_magic_0.VD3.t6 two_stage_opamp_dummy_magic_0.Vb3.t9 VDDA.t78 VDDA.t77 sky130_fd_pr__pfet_01v8 ad=0.7 pd=3.9 as=0.7 ps=3.9 w=3.5 l=0.2
X131 two_stage_opamp_dummy_magic_0.V_CMFB_S1.t8 two_stage_opamp_dummy_magic_0.X.t17 GNDA.t123 VDDA.t191 sky130_fd_pr__pfet_01v8 ad=0.4 pd=2.4 as=0.4 ps=2.4 w=2 l=0.15
X132 bgr_0.V_TOP.t19 VDDA.t292 sky130_fd_pr__cap_mim_m3_1 l=2 w=2
X133 two_stage_opamp_dummy_magic_0.VD3.t22 two_stage_opamp_dummy_magic_0.Vb2.t13 a_8420_8490.t7 two_stage_opamp_dummy_magic_0.VD3.t21 sky130_fd_pr__pfet_01v8 ad=0.7 pd=3.9 as=0.7 ps=3.9 w=3.5 l=0.2
X134 two_stage_opamp_dummy_magic_0.VOUT+.t40 two_stage_opamp_dummy_magic_0.cap_res_Y.t117 sky130_fd_pr__cap_mim_m3_1 l=2 w=2
X135 bgr_0.1st_Vout_1.t17 bgr_0.cap_res1.t15 sky130_fd_pr__cap_mim_m3_1 l=2 w=2
X136 GNDA.t288 GNDA.t286 two_stage_opamp_dummy_magic_0.Y.t9 GNDA.t287 sky130_fd_pr__nfet_01v8 ad=0.6 pd=3.8 as=0.3 ps=1.9 w=1.5 l=0.15
X137 two_stage_opamp_dummy_magic_0.VOUT+.t41 two_stage_opamp_dummy_magic_0.cap_res_Y.t116 sky130_fd_pr__cap_mim_m3_1 l=2 w=2
X138 a_14640_5068.t1 two_stage_opamp_dummy_magic_0.V_CMFB_S3.t4 GNDA.t72 sky130_fd_pr__res_xhigh_po_0p35 l=1.75
X139 two_stage_opamp_dummy_magic_0.X.t7 two_stage_opamp_dummy_magic_0.Vb1.t7 two_stage_opamp_dummy_magic_0.VD2.t12 GNDA.t131 sky130_fd_pr__nfet_01v8 ad=0.3 pd=1.9 as=0.3 ps=1.9 w=1.5 l=0.15
X140 two_stage_opamp_dummy_magic_0.V_CMFB_S2.t14 GNDA.t283 GNDA.t285 GNDA.t284 sky130_fd_pr__nfet_01v8 ad=0.2 pd=1.4 as=0.4 ps=2.8 w=1 l=0.15
X141 two_stage_opamp_dummy_magic_0.VOUT+.t42 two_stage_opamp_dummy_magic_0.cap_res_Y.t115 sky130_fd_pr__cap_mim_m3_1 l=2 w=2
X142 two_stage_opamp_dummy_magic_0.VOUT-.t43 two_stage_opamp_dummy_magic_0.cap_res_X.t114 sky130_fd_pr__cap_mim_m3_1 l=2 w=2
X143 two_stage_opamp_dummy_magic_0.V_p.t30 VIN+.t0 two_stage_opamp_dummy_magic_0.VD2.t14 GNDA.t159 sky130_fd_pr__nfet_01v8 ad=0.3 pd=1.9 as=0.3 ps=1.9 w=1.5 l=0.15
X144 two_stage_opamp_dummy_magic_0.VOUT+.t43 two_stage_opamp_dummy_magic_0.cap_res_Y.t114 sky130_fd_pr__cap_mim_m3_1 l=2 w=2
X145 VDDA.t173 bgr_0.V_mir2.t17 bgr_0.1st_Vout_2.t6 VDDA.t172 sky130_fd_pr__pfet_01v8 ad=0.2 pd=1.4 as=0.2 ps=1.4 w=1 l=0.2
X146 two_stage_opamp_dummy_magic_0.VOUT-.t44 two_stage_opamp_dummy_magic_0.cap_res_X.t113 sky130_fd_pr__cap_mim_m3_1 l=2 w=2
X147 two_stage_opamp_dummy_magic_0.VOUT-.t45 two_stage_opamp_dummy_magic_0.cap_res_X.t112 sky130_fd_pr__cap_mim_m3_1 l=2 w=2
X148 bgr_0.1st_Vout_1.t18 bgr_0.cap_res1.t14 sky130_fd_pr__cap_mim_m3_1 l=2 w=2
X149 a_13730_17020.t0 two_stage_opamp_dummy_magic_0.V_err_amp_ref.t0 GNDA.t102 sky130_fd_pr__res_xhigh_po_0p35 l=6.3
X150 GNDA.t89 two_stage_opamp_dummy_magic_0.X.t18 two_stage_opamp_dummy_magic_0.V_CMFB_S1.t7 VDDA.t115 sky130_fd_pr__pfet_01v8 ad=0.4 pd=2.4 as=0.4 ps=2.4 w=2 l=0.15
X151 two_stage_opamp_dummy_magic_0.V_p.t27 VIN+.t1 two_stage_opamp_dummy_magic_0.VD2.t10 GNDA.t125 sky130_fd_pr__nfet_01v8 ad=0.3 pd=1.9 as=0.3 ps=1.9 w=1.5 l=0.15
X152 two_stage_opamp_dummy_magic_0.VOUT+.t44 two_stage_opamp_dummy_magic_0.cap_res_Y.t113 sky130_fd_pr__cap_mim_m3_1 l=2 w=2
X153 bgr_0.V_CUR_REF_REG.t1 VDDA.t400 VDDA.t402 VDDA.t401 sky130_fd_pr__pfet_01v8 ad=0.2 pd=1.4 as=0.4 ps=2.8 w=1 l=0.15
X154 a_11220_17410.t1 a_12828_17530.t0 GNDA.t80 sky130_fd_pr__res_xhigh_po_0p35 l=6
X155 two_stage_opamp_dummy_magic_0.VOUT+.t45 two_stage_opamp_dummy_magic_0.cap_res_Y.t112 sky130_fd_pr__cap_mim_m3_1 l=2 w=2
X156 VDDA.t117 two_stage_opamp_dummy_magic_0.X.t19 two_stage_opamp_dummy_magic_0.VOUT-.t8 VDDA.t116 sky130_fd_pr__pfet_01v8 ad=1.2 pd=6.4 as=1.2 ps=6.4 w=6 l=0.15
X157 two_stage_opamp_dummy_magic_0.VOUT-.t46 two_stage_opamp_dummy_magic_0.cap_res_X.t111 sky130_fd_pr__cap_mim_m3_1 l=2 w=2
X158 bgr_0.TAIL_CUR_MIR_BIAS.t6 bgr_0.PFET_GATE_10uA.t14 VDDA.t141 VDDA.t140 sky130_fd_pr__pfet_01v8 ad=0.2 pd=1.4 as=0.2 ps=1.4 w=1 l=0.15
X159 two_stage_opamp_dummy_magic_0.V_CMFB_S4.t9 two_stage_opamp_dummy_magic_0.Y.t20 VDDA.t170 GNDA.t113 sky130_fd_pr__nfet_01v8 ad=0.6 pd=3.4 as=0.6 ps=3.4 w=3 l=0.15
X160 two_stage_opamp_dummy_magic_0.VOUT+.t46 two_stage_opamp_dummy_magic_0.cap_res_Y.t111 sky130_fd_pr__cap_mim_m3_1 l=2 w=2
X161 two_stage_opamp_dummy_magic_0.VOUT+.t47 two_stage_opamp_dummy_magic_0.cap_res_Y.t110 sky130_fd_pr__cap_mim_m3_1 l=2 w=2
X162 two_stage_opamp_dummy_magic_0.V_p.t19 bgr_0.TAIL_CUR_MIR_BIAS.t17 GNDA.t92 GNDA.t91 sky130_fd_pr__nfet_01v8 ad=0.5 pd=2.9 as=0.5 ps=2.9 w=2.5 l=0.15
X163 VDDA.t155 bgr_0.PFET_GATE_10uA.t15 bgr_0.V_CUR_REF_REG.t0 VDDA.t154 sky130_fd_pr__pfet_01v8 ad=0.2 pd=1.4 as=0.2 ps=1.4 w=1 l=0.15
X164 two_stage_opamp_dummy_magic_0.VD4.t7 two_stage_opamp_dummy_magic_0.Vb3.t10 VDDA.t73 VDDA.t72 sky130_fd_pr__pfet_01v8 ad=0.7 pd=3.9 as=0.7 ps=3.9 w=3.5 l=0.2
X165 two_stage_opamp_dummy_magic_0.VOUT+.t48 two_stage_opamp_dummy_magic_0.cap_res_Y.t109 sky130_fd_pr__cap_mim_m3_1 l=2 w=2
X166 bgr_0.PFET_GATE_10uA.t4 bgr_0.cap_res2.t20 GNDA.t121 sky130_fd_pr__res_high_po_0p35 l=2.05
X167 two_stage_opamp_dummy_magic_0.VD3.t20 two_stage_opamp_dummy_magic_0.Vb2.t14 a_8420_8490.t6 two_stage_opamp_dummy_magic_0.VD3.t19 sky130_fd_pr__pfet_01v8 ad=0.7 pd=3.9 as=0.7 ps=3.9 w=3.5 l=0.2
X168 bgr_0.V_p_1.t9 bgr_0.Vin-.t8 bgr_0.V_mir1.t12 GNDA.t190 sky130_fd_pr__nfet_01v8 ad=0.1 pd=0.9 as=0.1 ps=0.9 w=0.5 l=0.2
X169 VDDA.t36 bgr_0.V_mir1.t8 bgr_0.V_mir1.t9 VDDA.t35 sky130_fd_pr__pfet_01v8 ad=0.2 pd=1.4 as=0.2 ps=1.4 w=1 l=0.2
X170 two_stage_opamp_dummy_magic_0.VOUT+.t49 two_stage_opamp_dummy_magic_0.cap_res_Y.t108 sky130_fd_pr__cap_mim_m3_1 l=2 w=2
X171 two_stage_opamp_dummy_magic_0.VOUT+.t50 two_stage_opamp_dummy_magic_0.cap_res_Y.t107 sky130_fd_pr__cap_mim_m3_1 l=2 w=2
X172 two_stage_opamp_dummy_magic_0.VD2.t3 two_stage_opamp_dummy_magic_0.Vb1.t8 two_stage_opamp_dummy_magic_0.X.t0 GNDA.t12 sky130_fd_pr__nfet_01v8 ad=0.3 pd=1.9 as=0.3 ps=1.9 w=1.5 l=0.15
X173 bgr_0.1st_Vout_2.t15 bgr_0.cap_res2.t17 sky130_fd_pr__cap_mim_m3_1 l=2 w=2
X174 two_stage_opamp_dummy_magic_0.VOUT-.t47 two_stage_opamp_dummy_magic_0.cap_res_X.t110 sky130_fd_pr__cap_mim_m3_1 l=2 w=2
X175 two_stage_opamp_dummy_magic_0.VOUT-.t48 two_stage_opamp_dummy_magic_0.cap_res_X.t109 sky130_fd_pr__cap_mim_m3_1 l=2 w=2
X176 VDDA.t421 bgr_0.1st_Vout_1.t19 bgr_0.V_TOP.t9 VDDA.t420 sky130_fd_pr__pfet_01v8 ad=0.2 pd=1.4 as=0.2 ps=1.4 w=1 l=0.2
X177 VDDA.t291 bgr_0.V_TOP.t20 two_stage_opamp_dummy_magic_0.V_err_amp_ref.t4 VDDA.t290 sky130_fd_pr__pfet_01v8 ad=0.6 pd=3.4 as=0.6 ps=3.4 w=3 l=0.5
X178 two_stage_opamp_dummy_magic_0.VOUT-.t49 two_stage_opamp_dummy_magic_0.cap_res_X.t108 sky130_fd_pr__cap_mim_m3_1 l=2 w=2
X179 GNDA.t98 bgr_0.TAIL_CUR_MIR_BIAS.t18 two_stage_opamp_dummy_magic_0.V_p.t18 GNDA.t97 sky130_fd_pr__nfet_01v8 ad=0.5 pd=2.9 as=0.5 ps=2.9 w=2.5 l=0.15
X180 two_stage_opamp_dummy_magic_0.VOUT-.t50 two_stage_opamp_dummy_magic_0.cap_res_X.t107 sky130_fd_pr__cap_mim_m3_1 l=2 w=2
X181 bgr_0.V_p_2.t0 bgr_0.V_CUR_REF_REG.t3 bgr_0.1st_Vout_2.t0 GNDA.t1 sky130_fd_pr__nfet_01v8 ad=0.1 pd=0.9 as=0.1 ps=0.9 w=0.5 l=0.2
X182 two_stage_opamp_dummy_magic_0.VOUT-.t51 two_stage_opamp_dummy_magic_0.cap_res_X.t106 sky130_fd_pr__cap_mim_m3_1 l=2 w=2
X183 two_stage_opamp_dummy_magic_0.VOUT+.t51 two_stage_opamp_dummy_magic_0.cap_res_Y.t106 sky130_fd_pr__cap_mim_m3_1 l=2 w=2
X184 two_stage_opamp_dummy_magic_0.VOUT-.t7 two_stage_opamp_dummy_magic_0.X.t20 VDDA.t105 VDDA.t104 sky130_fd_pr__pfet_01v8 ad=1.2 pd=6.4 as=1.2 ps=6.4 w=6 l=0.15
X185 two_stage_opamp_dummy_magic_0.VOUT+.t52 two_stage_opamp_dummy_magic_0.cap_res_Y.t105 sky130_fd_pr__cap_mim_m3_1 l=2 w=2
X186 bgr_0.V_p_1.t8 bgr_0.Vin-.t9 bgr_0.V_mir1.t15 GNDA.t189 sky130_fd_pr__nfet_01v8 ad=0.1 pd=0.9 as=0.1 ps=0.9 w=0.5 l=0.2
X187 bgr_0.1st_Vout_2.t16 bgr_0.cap_res2.t16 sky130_fd_pr__cap_mim_m3_1 l=2 w=2
X188 GNDA.t100 bgr_0.TAIL_CUR_MIR_BIAS.t19 two_stage_opamp_dummy_magic_0.V_p.t17 GNDA.t99 sky130_fd_pr__nfet_01v8 ad=0.5 pd=2.9 as=0.5 ps=2.9 w=2.5 l=0.15
X189 bgr_0.V_TOP.t0 VDDA.t397 VDDA.t399 VDDA.t398 sky130_fd_pr__pfet_01v8 ad=0.2 pd=1.4 as=0.4 ps=2.8 w=1 l=0.15
X190 two_stage_opamp_dummy_magic_0.VOUT-.t52 two_stage_opamp_dummy_magic_0.cap_res_X.t105 sky130_fd_pr__cap_mim_m3_1 l=2 w=2
X191 bgr_0.Vin-.t0 bgr_0.START_UP.t6 bgr_0.V_TOP.t5 VDDA.t103 sky130_fd_pr__pfet_01v8 ad=0.2 pd=1.4 as=0.2 ps=1.4 w=1 l=0.15
X192 VDDA.t396 VDDA.t394 two_stage_opamp_dummy_magic_0.V_err_p.t21 VDDA.t395 sky130_fd_pr__pfet_01v8 ad=0.2 pd=1.8 as=0.1 ps=0.9 w=0.5 l=0.15
X193 two_stage_opamp_dummy_magic_0.VD1.t12 two_stage_opamp_dummy_magic_0.Vb1.t9 two_stage_opamp_dummy_magic_0.Y.t2 GNDA.t44 sky130_fd_pr__nfet_01v8 ad=0.3 pd=1.9 as=0.3 ps=1.9 w=1.5 l=0.15
X194 two_stage_opamp_dummy_magic_0.VOUT-.t53 two_stage_opamp_dummy_magic_0.cap_res_X.t104 sky130_fd_pr__cap_mim_m3_1 l=2 w=2
X195 two_stage_opamp_dummy_magic_0.VOUT+.t53 two_stage_opamp_dummy_magic_0.cap_res_Y.t104 sky130_fd_pr__cap_mim_m3_1 l=2 w=2
X196 bgr_0.1st_Vout_1.t20 bgr_0.cap_res1.t13 sky130_fd_pr__cap_mim_m3_1 l=2 w=2
X197 bgr_0.V_TOP.t21 VDDA.t281 sky130_fd_pr__cap_mim_m3_1 l=2 w=2
X198 two_stage_opamp_dummy_magic_0.err_amp_out.t4 two_stage_opamp_dummy_magic_0.V_err_amp_ref.t9 two_stage_opamp_dummy_magic_0.V_err_p.t17 VDDA.t55 sky130_fd_pr__pfet_01v8 ad=0.1 pd=0.9 as=0.1 ps=0.9 w=0.5 l=0.15
X199 two_stage_opamp_dummy_magic_0.VOUT-.t54 two_stage_opamp_dummy_magic_0.cap_res_X.t103 sky130_fd_pr__cap_mim_m3_1 l=2 w=2
X200 two_stage_opamp_dummy_magic_0.VOUT-.t55 two_stage_opamp_dummy_magic_0.cap_res_X.t102 sky130_fd_pr__cap_mim_m3_1 l=2 w=2
X201 VDDA.t205 two_stage_opamp_dummy_magic_0.Vb3.t11 two_stage_opamp_dummy_magic_0.VD4.t32 VDDA.t204 sky130_fd_pr__pfet_01v8 ad=0.7 pd=3.9 as=0.7 ps=3.9 w=3.5 l=0.2
X202 GNDA.t347 two_stage_opamp_dummy_magic_0.Y.t21 two_stage_opamp_dummy_magic_0.V_CMFB_S3.t13 VDDA.t468 sky130_fd_pr__pfet_01v8 ad=0.4 pd=2.4 as=0.4 ps=2.4 w=2 l=0.15
X203 two_stage_opamp_dummy_magic_0.VOUT-.t56 two_stage_opamp_dummy_magic_0.cap_res_X.t101 sky130_fd_pr__cap_mim_m3_1 l=2 w=2
X204 two_stage_opamp_dummy_magic_0.V_p.t16 bgr_0.TAIL_CUR_MIR_BIAS.t20 GNDA.t17 GNDA.t16 sky130_fd_pr__nfet_01v8 ad=0.5 pd=2.9 as=0.5 ps=2.9 w=2.5 l=0.15
X205 a_13730_17020.t1 GNDA.t164 GNDA.t102 sky130_fd_pr__res_xhigh_po_0p35 l=6.3
X206 bgr_0.1st_Vout_1.t21 bgr_0.cap_res1.t12 sky130_fd_pr__cap_mim_m3_1 l=2 w=2
X207 bgr_0.V_TOP.t22 VDDA.t280 sky130_fd_pr__cap_mim_m3_1 l=2 w=2
X208 two_stage_opamp_dummy_magic_0.VD3.t32 two_stage_opamp_dummy_magic_0.VD3.t30 a_8420_8490.t11 two_stage_opamp_dummy_magic_0.VD3.t31 sky130_fd_pr__pfet_01v8 ad=1.4 pd=7.8 as=0.7 ps=3.9 w=3.5 l=0.2
X209 two_stage_opamp_dummy_magic_0.V_err_amp_ref.t6 VDDA.t391 VDDA.t393 VDDA.t392 sky130_fd_pr__pfet_01v8 ad=0.6 pd=3.4 as=1.2 ps=6.8 w=3 l=0.5
X210 a_11220_17290.t1 a_12828_17650.t0 GNDA.t80 sky130_fd_pr__res_xhigh_po_0p35 l=6
X211 VDDA.t20 two_stage_opamp_dummy_magic_0.Vb3.t12 two_stage_opamp_dummy_magic_0.VD3.t1 VDDA.t19 sky130_fd_pr__pfet_01v8 ad=0.7 pd=3.9 as=0.7 ps=3.9 w=3.5 l=0.2
X212 two_stage_opamp_dummy_magic_0.VOUT+.t54 two_stage_opamp_dummy_magic_0.cap_res_Y.t103 sky130_fd_pr__cap_mim_m3_1 l=2 w=2
X213 two_stage_opamp_dummy_magic_0.VOUT+.t55 two_stage_opamp_dummy_magic_0.cap_res_Y.t102 sky130_fd_pr__cap_mim_m3_1 l=2 w=2
X214 two_stage_opamp_dummy_magic_0.VOUT+.t56 two_stage_opamp_dummy_magic_0.cap_res_Y.t101 sky130_fd_pr__cap_mim_m3_1 l=2 w=2
X215 two_stage_opamp_dummy_magic_0.VOUT-.t57 two_stage_opamp_dummy_magic_0.cap_res_X.t100 sky130_fd_pr__cap_mim_m3_1 l=2 w=2
X216 bgr_0.V_p_2.t10 bgr_0.V_CUR_REF_REG.t4 bgr_0.1st_Vout_2.t10 GNDA.t197 sky130_fd_pr__nfet_01v8 ad=0.1 pd=0.9 as=0.2 ps=1.8 w=0.5 l=0.2
X217 two_stage_opamp_dummy_magic_0.V_CMFB_S1.t16 bgr_0.PFET_GATE_10uA.t16 VDDA.t425 VDDA.t424 sky130_fd_pr__pfet_01v8 ad=0.2 pd=1.4 as=0.2 ps=1.4 w=1 l=0.15
X218 two_stage_opamp_dummy_magic_0.VOUT+.t57 two_stage_opamp_dummy_magic_0.cap_res_Y.t100 sky130_fd_pr__cap_mim_m3_1 l=2 w=2
X219 VDDA.t30 bgr_0.PFET_GATE_10uA.t17 two_stage_opamp_dummy_magic_0.V_CMFB_S1.t11 VDDA.t29 sky130_fd_pr__pfet_01v8 ad=0.2 pd=1.4 as=0.2 ps=1.4 w=1 l=0.15
X220 two_stage_opamp_dummy_magic_0.V_p.t25 VIN+.t2 two_stage_opamp_dummy_magic_0.VD2.t7 GNDA.t84 sky130_fd_pr__nfet_01v8 ad=0.3 pd=1.9 as=0.3 ps=1.9 w=1.5 l=0.15
X221 two_stage_opamp_dummy_magic_0.VOUT-.t58 two_stage_opamp_dummy_magic_0.cap_res_X.t99 sky130_fd_pr__cap_mim_m3_1 l=2 w=2