* PEX produced on Wed Jul  2 09:26:20 PM CEST 2025 using /foss/tools/osic-multitool/iic-pex.sh with m=3 and s=1
* NGSPICE file created from bgr_opamp_dummy_magic_5.ext - technology: sky130A

.subckt bgr_opamp_dummy_magic_5 VDDA GNDA VOUT+ VOUT- VIN+ VIN-
X0 a_n8798_9160.t1 a_n7190_9280.t1 GNDA.t66 sky130_fd_pr__res_xhigh_po_0p35 l=6
X1 a_14640_5738.t1 two_stage_opamp_dummy_magic_0.V_CMFB_S3.t10 GNDA.t176 sky130_fd_pr__res_xhigh_po_0p35 l=1.75
X2 VDDA.t259 bgr_0.V_mir2.t17 bgr_0.1st_Vout_2.t4 VDDA.t258 sky130_fd_pr__pfet_01v8 ad=0.2 pd=1.4 as=0.2 ps=1.4 w=1 l=0.2
X3 two_stage_opamp_dummy_magic_0.V_CMFB_S2.t9 bgr_0.NFET_GATE_10uA.t5 GNDA.t9 GNDA.t8 sky130_fd_pr__nfet_01v8 ad=0.2 pd=1.4 as=0.2 ps=1.4 w=1 l=0.15
X4 two_stage_opamp_dummy_magic_0.VD2.t10 GNDA.t308 GNDA.t310 GNDA.t309 sky130_fd_pr__nfet_01v8 ad=0.3 pd=1.9 as=0.6 ps=3.8 w=1.5 l=0.15
X5 VOUT-.t19 two_stage_opamp_dummy_magic_0.cap_res_X.t138 sky130_fd_pr__cap_mim_m3_1 l=2 w=2
X6 VOUT-.t20 two_stage_opamp_dummy_magic_0.cap_res_X.t137 sky130_fd_pr__cap_mim_m3_1 l=2 w=2
X7 VOUT-.t21 two_stage_opamp_dummy_magic_0.cap_res_X.t136 sky130_fd_pr__cap_mim_m3_1 l=2 w=2
X8 bgr_0.1st_Vout_2.t11 bgr_0.cap_res2.t20 sky130_fd_pr__cap_mim_m3_1 l=2 w=2
X9 VOUT-.t22 two_stage_opamp_dummy_magic_0.cap_res_X.t135 sky130_fd_pr__cap_mim_m3_1 l=2 w=2
X10 two_stage_opamp_dummy_magic_0.V_err_gate.t12 two_stage_opamp_dummy_magic_0.V_err_amp_ref.t7 two_stage_opamp_dummy_magic_0.V_err_mir_p.t14 VDDA.t290 sky130_fd_pr__pfet_01v8 ad=0.1 pd=0.9 as=0.1 ps=0.9 w=0.5 l=0.15
X11 VOUT-.t23 two_stage_opamp_dummy_magic_0.cap_res_X.t134 sky130_fd_pr__cap_mim_m3_1 l=2 w=2
X12 VDDA.t169 bgr_0.V_mir1.t12 bgr_0.V_mir1.t13 VDDA.t168 sky130_fd_pr__pfet_01v8 ad=0.2 pd=1.4 as=0.2 ps=1.4 w=1 l=0.2
X13 GNDA.t63 two_stage_opamp_dummy_magic_0.X.t25 two_stage_opamp_dummy_magic_0.V_CMFB_S1.t13 VDDA.t227 sky130_fd_pr__pfet_01v8 ad=0.4 pd=2.4 as=0.4 ps=2.4 w=2 l=0.15
X14 GNDA.t41 bgr_0.NFET_GATE_10uA.t6 two_stage_opamp_dummy_magic_0.V_err_gate.t6 GNDA.t40 sky130_fd_pr__nfet_01v8 ad=0.2 pd=1.4 as=0.2 ps=1.4 w=1 l=0.15
X15 two_stage_opamp_dummy_magic_0.X.t19 GNDA.t311 GNDA.t313 GNDA.t312 sky130_fd_pr__nfet_01v8 ad=0.3 pd=1.9 as=0.6 ps=3.8 w=1.5 l=0.15
X16 VOUT-.t24 two_stage_opamp_dummy_magic_0.cap_res_X.t133 sky130_fd_pr__cap_mim_m3_1 l=2 w=2
X17 VOUT-.t25 two_stage_opamp_dummy_magic_0.cap_res_X.t132 sky130_fd_pr__cap_mim_m3_1 l=2 w=2
X18 VOUT-.t26 two_stage_opamp_dummy_magic_0.cap_res_X.t131 sky130_fd_pr__cap_mim_m3_1 l=2 w=2
X19 VDDA.t206 two_stage_opamp_dummy_magic_0.X.t26 VOUT-.t2 VDDA.t205 sky130_fd_pr__pfet_01v8 ad=1.2 pd=6.4 as=1.2 ps=6.4 w=6 l=0.15
X20 two_stage_opamp_dummy_magic_0.V_CMFB_S4.t9 two_stage_opamp_dummy_magic_0.Y.t25 VDDA.t381 GNDA.t182 sky130_fd_pr__nfet_01v8 ad=0.6 pd=3.4 as=0.6 ps=3.4 w=3 l=0.15
X21 bgr_0.V_p_2.t6 two_stage_opamp_dummy_magic_0.V_err_amp_ref.t8 bgr_0.V_mir2.t2 GNDA.t78 sky130_fd_pr__nfet_01v8 ad=0.1 pd=0.9 as=0.1 ps=0.9 w=0.5 l=0.2
X22 VOUT+.t19 two_stage_opamp_dummy_magic_0.cap_res_Y.t138 sky130_fd_pr__cap_mim_m3_1 l=2 w=2
X23 GNDA.t227 GNDA.t315 bgr_0.Vbe2.t8 sky130_fd_pr__pnp_05v5_W3p40L3p40
**devattr s=462400,2720
X24 VDDA.t454 bgr_0.V_TOP.t14 bgr_0.START_UP.t3 VDDA.t453 sky130_fd_pr__pfet_01v8 ad=0.6 pd=3.4 as=0.6 ps=3.4 w=3 l=0.5
X25 two_stage_opamp_dummy_magic_0.V_b_2nd_stage.t0 a_5750_2946.t0 GNDA.t3 sky130_fd_pr__res_xhigh_po_0p35 l=2.63
X26 VOUT+.t20 two_stage_opamp_dummy_magic_0.cap_res_Y.t137 sky130_fd_pr__cap_mim_m3_1 l=2 w=2
X27 VOUT+.t21 two_stage_opamp_dummy_magic_0.cap_res_Y.t136 sky130_fd_pr__cap_mim_m3_1 l=2 w=2
X28 VOUT-.t27 two_stage_opamp_dummy_magic_0.cap_res_X.t130 sky130_fd_pr__cap_mim_m3_1 l=2 w=2
X29 VDDA.t139 two_stage_opamp_dummy_magic_0.V_err_gate.t14 two_stage_opamp_dummy_magic_0.V_err_mir_p.t1 VDDA.t138 sky130_fd_pr__pfet_01v8 ad=0.1 pd=0.9 as=0.1 ps=0.9 w=0.5 l=0.15
X30 bgr_0.V_p_1.t7 bgr_0.Vin+.t6 bgr_0.1st_Vout_1.t2 GNDA.t10 sky130_fd_pr__nfet_01v8 ad=0.1 pd=0.9 as=0.1 ps=0.9 w=0.5 l=0.2
X31 two_stage_opamp_dummy_magic_0.VD3.t25 two_stage_opamp_dummy_magic_0.VD3.t23 two_stage_opamp_dummy_magic_0.X.t13 two_stage_opamp_dummy_magic_0.VD3.t24 sky130_fd_pr__pfet_01v8 ad=1.4 pd=7.8 as=0.7 ps=3.9 w=3.5 l=0.2
X32 VOUT-.t28 two_stage_opamp_dummy_magic_0.cap_res_X.t129 sky130_fd_pr__cap_mim_m3_1 l=2 w=2
X33 VOUT-.t29 two_stage_opamp_dummy_magic_0.cap_res_X.t128 sky130_fd_pr__cap_mim_m3_1 l=2 w=2
X34 bgr_0.1st_Vout_2.t12 bgr_0.cap_res2.t19 sky130_fd_pr__cap_mim_m3_1 l=2 w=2
X35 VDDA.t456 bgr_0.V_TOP.t15 two_stage_opamp_dummy_magic_0.V_err_amp_ref.t6 VDDA.t455 sky130_fd_pr__pfet_01v8 ad=0.6 pd=3.4 as=0.6 ps=3.4 w=3 l=0.5
X36 VOUT+.t22 two_stage_opamp_dummy_magic_0.cap_res_Y.t135 sky130_fd_pr__cap_mim_m3_1 l=2 w=2
X37 GNDA.t175 two_stage_opamp_dummy_magic_0.err_amp_mir.t12 two_stage_opamp_dummy_magic_0.err_amp_mir.t13 GNDA.t174 sky130_fd_pr__nfet_01v8 ad=0.1 pd=0.9 as=0.1 ps=0.9 w=0.5 l=0.15
X38 GNDA.t225 GNDA.t314 bgr_0.Vbe2.t7 sky130_fd_pr__pnp_05v5_W3p40L3p40
**devattr s=462400,2720
X39 bgr_0.1st_Vout_1.t11 bgr_0.cap_res1.t20 sky130_fd_pr__cap_mim_m3_1 l=2 w=2
X40 VOUT-.t30 two_stage_opamp_dummy_magic_0.cap_res_X.t127 sky130_fd_pr__cap_mim_m3_1 l=2 w=2
X41 VDDA.t217 two_stage_opamp_dummy_magic_0.Vb3.t8 two_stage_opamp_dummy_magic_0.VD3.t19 VDDA.t216 sky130_fd_pr__pfet_01v8 ad=0.7 pd=3.9 as=0.7 ps=3.9 w=3.5 l=0.2
X42 VDDA.t121 VDDA.t119 two_stage_opamp_dummy_magic_0.V_err_gate.t1 VDDA.t120 sky130_fd_pr__pfet_01v8 ad=0.2 pd=1.8 as=0.1 ps=0.9 w=0.5 l=0.15
X43 VOUT-.t31 two_stage_opamp_dummy_magic_0.cap_res_X.t126 sky130_fd_pr__cap_mim_m3_1 l=2 w=2
X44 VOUT+.t23 two_stage_opamp_dummy_magic_0.cap_res_Y.t134 sky130_fd_pr__cap_mim_m3_1 l=2 w=2
X45 two_stage_opamp_dummy_magic_0.Y.t20 GNDA.t319 GNDA.t321 GNDA.t320 sky130_fd_pr__nfet_01v8 ad=0.3 pd=1.9 as=0.6 ps=3.8 w=1.5 l=0.15
X46 two_stage_opamp_dummy_magic_0.Y.t15 two_stage_opamp_dummy_magic_0.Vb1.t6 two_stage_opamp_dummy_magic_0.VD1.t9 GNDA.t200 sky130_fd_pr__nfet_01v8 ad=0.3 pd=1.9 as=0.3 ps=1.9 w=1.5 l=0.15
X47 VOUT+.t24 two_stage_opamp_dummy_magic_0.cap_res_Y.t133 sky130_fd_pr__cap_mim_m3_1 l=2 w=2
X48 VOUT+.t25 two_stage_opamp_dummy_magic_0.cap_res_Y.t132 sky130_fd_pr__cap_mim_m3_1 l=2 w=2
X49 two_stage_opamp_dummy_magic_0.V_err_p.t14 two_stage_opamp_dummy_magic_0.V_err_gate.t15 VDDA.t141 VDDA.t140 sky130_fd_pr__pfet_01v8 ad=0.1 pd=0.9 as=0.1 ps=0.9 w=0.5 l=0.15
X50 VOUT-.t3 two_stage_opamp_dummy_magic_0.X.t27 VDDA.t208 VDDA.t207 sky130_fd_pr__pfet_01v8 ad=1.2 pd=6.4 as=1.2 ps=6.4 w=6 l=0.15
X51 bgr_0.V_TOP.t16 VDDA.t458 sky130_fd_pr__cap_mim_m3_1 l=2 w=2
X52 two_stage_opamp_dummy_magic_0.V_err_p.t4 two_stage_opamp_dummy_magic_0.V_tot.t4 two_stage_opamp_dummy_magic_0.err_amp_mir.t3 VDDA.t266 sky130_fd_pr__pfet_01v8 ad=0.1 pd=0.9 as=0.1 ps=0.9 w=0.5 l=0.15
X53 VDDA.t428 bgr_0.1st_Vout_2.t13 bgr_0.PFET_GATE_10uA.t9 VDDA.t427 sky130_fd_pr__pfet_01v8 ad=0.2 pd=1.4 as=0.2 ps=1.4 w=1 l=0.2
X54 VOUT+.t26 two_stage_opamp_dummy_magic_0.cap_res_Y.t131 sky130_fd_pr__cap_mim_m3_1 l=2 w=2
X55 two_stage_opamp_dummy_magic_0.VD1.t17 VIN-.t0 two_stage_opamp_dummy_magic_0.V_p.t19 GNDA.t201 sky130_fd_pr__nfet_01v8 ad=0.3 pd=1.9 as=0.3 ps=1.9 w=1.5 l=0.15
X56 VOUT+.t27 two_stage_opamp_dummy_magic_0.cap_res_Y.t130 sky130_fd_pr__cap_mim_m3_1 l=2 w=2
X57 VOUT-.t32 two_stage_opamp_dummy_magic_0.cap_res_X.t125 sky130_fd_pr__cap_mim_m3_1 l=2 w=2
X58 VOUT+.t28 two_stage_opamp_dummy_magic_0.cap_res_Y.t129 sky130_fd_pr__cap_mim_m3_1 l=2 w=2
X59 two_stage_opamp_dummy_magic_0.V_err_p.t13 two_stage_opamp_dummy_magic_0.V_err_gate.t16 VDDA.t357 VDDA.t356 sky130_fd_pr__pfet_01v8 ad=0.1 pd=0.9 as=0.1 ps=0.9 w=0.5 l=0.15
X60 VDDA.t460 bgr_0.V_TOP.t17 bgr_0.Vin+.t3 VDDA.t459 sky130_fd_pr__pfet_01v8 ad=0.6 pd=3.4 as=0.6 ps=3.4 w=3 l=0.5
X61 VOUT+.t29 two_stage_opamp_dummy_magic_0.cap_res_Y.t128 sky130_fd_pr__cap_mim_m3_1 l=2 w=2
X62 VOUT+.t30 two_stage_opamp_dummy_magic_0.cap_res_Y.t127 sky130_fd_pr__cap_mim_m3_1 l=2 w=2
X63 GNDA.t151 two_stage_opamp_dummy_magic_0.Y.t26 two_stage_opamp_dummy_magic_0.V_CMFB_S3.t7 VDDA.t353 sky130_fd_pr__pfet_01v8 ad=0.4 pd=2.4 as=0.4 ps=2.4 w=2 l=0.15
X64 VOUT-.t33 two_stage_opamp_dummy_magic_0.cap_res_X.t124 sky130_fd_pr__cap_mim_m3_1 l=2 w=2
X65 bgr_0.1st_Vout_1.t12 bgr_0.cap_res1.t19 sky130_fd_pr__cap_mim_m3_1 l=2 w=2
X66 two_stage_opamp_dummy_magic_0.Vb2.t8 bgr_0.NFET_GATE_10uA.t7 GNDA.t43 GNDA.t42 sky130_fd_pr__nfet_01v8 ad=0.2 pd=1.4 as=0.2 ps=1.4 w=1 l=0.15
X67 GNDA.t46 bgr_0.START_UP_NFET1.t1 bgr_0.START_UP_NFET1.t0 GNDA.t45 sky130_fd_pr__nfet_01v8 ad=0.4 pd=2.8 as=0.2 ps=1.4 w=1 l=10
X68 two_stage_opamp_dummy_magic_0.VD1.t21 VIN-.t1 two_stage_opamp_dummy_magic_0.V_p.t18 GNDA.t332 sky130_fd_pr__nfet_01v8 ad=0.3 pd=1.9 as=0.3 ps=1.9 w=1.5 l=0.15
X69 VDDA.t145 two_stage_opamp_dummy_magic_0.Vb3.t9 two_stage_opamp_dummy_magic_0.VD3.t7 VDDA.t144 sky130_fd_pr__pfet_01v8 ad=0.7 pd=3.9 as=0.7 ps=3.9 w=3.5 l=0.2
X70 VOUT+.t31 two_stage_opamp_dummy_magic_0.cap_res_Y.t126 sky130_fd_pr__cap_mim_m3_1 l=2 w=2
X71 two_stage_opamp_dummy_magic_0.X.t2 two_stage_opamp_dummy_magic_0.Vb2.t11 two_stage_opamp_dummy_magic_0.VD3.t6 two_stage_opamp_dummy_magic_0.VD3.t5 sky130_fd_pr__pfet_01v8 ad=0.7 pd=3.9 as=0.7 ps=3.9 w=3.5 l=0.2
X72 two_stage_opamp_dummy_magic_0.V_CMFB_S3.t14 VDDA.t116 VDDA.t118 VDDA.t117 sky130_fd_pr__pfet_01v8 ad=0.2 pd=1.4 as=0.4 ps=2.8 w=1 l=0.15
X73 VOUT-.t34 two_stage_opamp_dummy_magic_0.cap_res_X.t123 sky130_fd_pr__cap_mim_m3_1 l=2 w=2
X74 GNDA.t342 two_stage_opamp_dummy_magic_0.V_b_2nd_stage.t2 VOUT+.t18 GNDA.t341 sky130_fd_pr__nfet_01v8 ad=1.4 pd=7.4 as=1.4 ps=7.4 w=7 l=0.6
X75 GNDA.t14 two_stage_opamp_dummy_magic_0.X.t28 two_stage_opamp_dummy_magic_0.V_CMFB_S1.t12 VDDA.t150 sky130_fd_pr__pfet_01v8 ad=0.4 pd=2.4 as=0.4 ps=2.4 w=2 l=0.15
X76 GNDA.t89 two_stage_opamp_dummy_magic_0.V_tail_gate.t12 two_stage_opamp_dummy_magic_0.V_p.t8 GNDA.t88 sky130_fd_pr__nfet_01v8 ad=0.5 pd=2.9 as=0.5 ps=2.9 w=2.5 l=0.15
X77 VDDA.t426 bgr_0.1st_Vout_2.t14 bgr_0.PFET_GATE_10uA.t8 VDDA.t425 sky130_fd_pr__pfet_01v8 ad=0.2 pd=1.4 as=0.2 ps=1.4 w=1 l=0.2
X78 bgr_0.1st_Vout_2.t15 bgr_0.cap_res2.t18 sky130_fd_pr__cap_mim_m3_1 l=2 w=2
X79 VOUT+.t32 two_stage_opamp_dummy_magic_0.cap_res_Y.t125 sky130_fd_pr__cap_mim_m3_1 l=2 w=2
X80 GNDA.t318 GNDA.t316 two_stage_opamp_dummy_magic_0.VD1.t20 GNDA.t317 sky130_fd_pr__nfet_01v8 ad=0.6 pd=3.8 as=0.3 ps=1.9 w=1.5 l=0.15
X81 VOUT+.t33 two_stage_opamp_dummy_magic_0.cap_res_Y.t124 sky130_fd_pr__cap_mim_m3_1 l=2 w=2
X82 VOUT-.t35 two_stage_opamp_dummy_magic_0.cap_res_X.t122 sky130_fd_pr__cap_mim_m3_1 l=2 w=2
X83 VOUT+.t34 two_stage_opamp_dummy_magic_0.cap_res_Y.t123 sky130_fd_pr__cap_mim_m3_1 l=2 w=2
X84 two_stage_opamp_dummy_magic_0.Vb2.t7 bgr_0.NFET_GATE_10uA.t8 GNDA.t100 GNDA.t99 sky130_fd_pr__nfet_01v8 ad=0.2 pd=1.4 as=0.2 ps=1.4 w=1 l=0.15
X85 VOUT-.t36 two_stage_opamp_dummy_magic_0.cap_res_X.t121 sky130_fd_pr__cap_mim_m3_1 l=2 w=2
X86 VOUT+.t15 two_stage_opamp_dummy_magic_0.Y.t27 VDDA.t294 VDDA.t293 sky130_fd_pr__pfet_01v8 ad=1.2 pd=6.4 as=1.2 ps=6.4 w=6 l=0.15
X87 GNDA.t307 GNDA.t305 GNDA.t307 GNDA.t306 sky130_fd_pr__nfet_01v8 ad=0.5 pd=2.9 as=0 ps=0 w=2.5 l=0.15
X88 GNDA.t304 GNDA.t302 two_stage_opamp_dummy_magic_0.VD1.t19 GNDA.t303 sky130_fd_pr__nfet_01v8 ad=0.6 pd=3.8 as=0.3 ps=1.9 w=1.5 l=0.15
X89 VDDA.t359 two_stage_opamp_dummy_magic_0.V_err_gate.t17 two_stage_opamp_dummy_magic_0.V_err_p.t12 VDDA.t358 sky130_fd_pr__pfet_01v8 ad=0.1 pd=0.9 as=0.1 ps=0.9 w=0.5 l=0.15
X90 VOUT+.t35 two_stage_opamp_dummy_magic_0.cap_res_Y.t122 sky130_fd_pr__cap_mim_m3_1 l=2 w=2
X91 two_stage_opamp_dummy_magic_0.V_tail_gate.t7 bgr_0.PFET_GATE_10uA.t10 VDDA.t284 VDDA.t283 sky130_fd_pr__pfet_01v8 ad=0.2 pd=1.4 as=0.2 ps=1.4 w=1 l=0.15
X92 GNDA.t301 GNDA.t299 VOUT+.t17 GNDA.t300 sky130_fd_pr__nfet_01v8 ad=2.8 pd=14.8 as=1.4 ps=7.4 w=7 l=0.6
X93 two_stage_opamp_dummy_magic_0.V_CMFB_S2.t0 two_stage_opamp_dummy_magic_0.X.t29 VDDA.t151 GNDA.t15 sky130_fd_pr__nfet_01v8 ad=0.6 pd=3.4 as=0.6 ps=3.4 w=3 l=0.15
X94 bgr_0.1st_Vout_1.t13 bgr_0.cap_res1.t18 sky130_fd_pr__cap_mim_m3_1 l=2 w=2
X95 two_stage_opamp_dummy_magic_0.X.t6 two_stage_opamp_dummy_magic_0.Vb2.t12 two_stage_opamp_dummy_magic_0.VD3.t11 two_stage_opamp_dummy_magic_0.VD3.t10 sky130_fd_pr__pfet_01v8 ad=0.7 pd=3.9 as=0.7 ps=3.9 w=3.5 l=0.2
X96 GNDA.t298 GNDA.t296 two_stage_opamp_dummy_magic_0.X.t18 GNDA.t297 sky130_fd_pr__nfet_01v8 ad=0.6 pd=3.8 as=0.3 ps=1.9 w=1.5 l=0.15
X97 two_stage_opamp_dummy_magic_0.V_err_mir_p.t2 two_stage_opamp_dummy_magic_0.V_err_gate.t18 VDDA.t147 VDDA.t146 sky130_fd_pr__pfet_01v8 ad=0.1 pd=0.9 as=0.1 ps=0.9 w=0.5 l=0.15
X98 VOUT-.t7 two_stage_opamp_dummy_magic_0.X.t30 VDDA.t261 VDDA.t260 sky130_fd_pr__pfet_01v8 ad=1.2 pd=6.4 as=1.2 ps=6.4 w=6 l=0.15
X99 VOUT+.t36 two_stage_opamp_dummy_magic_0.cap_res_Y.t121 sky130_fd_pr__cap_mim_m3_1 l=2 w=2
X100 bgr_0.1st_Vout_1.t14 bgr_0.cap_res1.t17 sky130_fd_pr__cap_mim_m3_1 l=2 w=2
X101 VOUT+.t37 two_stage_opamp_dummy_magic_0.cap_res_Y.t120 sky130_fd_pr__cap_mim_m3_1 l=2 w=2
X102 VOUT+.t38 two_stage_opamp_dummy_magic_0.cap_res_Y.t119 sky130_fd_pr__cap_mim_m3_1 l=2 w=2
X103 VOUT+.t39 two_stage_opamp_dummy_magic_0.cap_res_Y.t118 sky130_fd_pr__cap_mim_m3_1 l=2 w=2
X104 VOUT+.t40 two_stage_opamp_dummy_magic_0.cap_res_Y.t117 sky130_fd_pr__cap_mim_m3_1 l=2 w=2
X105 bgr_0.1st_Vout_2.t10 bgr_0.V_CUR_REF_REG.t3 bgr_0.V_p_2.t10 GNDA.t214 sky130_fd_pr__nfet_01v8 ad=0.2 pd=1.8 as=0.1 ps=0.9 w=0.5 l=0.2
X106 a_14640_5738.t0 two_stage_opamp_dummy_magic_0.V_tot.t2 GNDA.t90 sky130_fd_pr__res_xhigh_po_0p35 l=1.75
X107 VOUT-.t37 two_stage_opamp_dummy_magic_0.cap_res_X.t120 sky130_fd_pr__cap_mim_m3_1 l=2 w=2
X108 VOUT-.t38 two_stage_opamp_dummy_magic_0.cap_res_X.t119 sky130_fd_pr__cap_mim_m3_1 l=2 w=2
X109 VOUT-.t39 two_stage_opamp_dummy_magic_0.cap_res_X.t118 sky130_fd_pr__cap_mim_m3_1 l=2 w=2
X110 bgr_0.1st_Vout_2.t5 bgr_0.V_mir2.t18 VDDA.t257 VDDA.t256 sky130_fd_pr__pfet_01v8 ad=0.2 pd=1.4 as=0.2 ps=1.4 w=1 l=0.2
X111 VDDA.t115 VDDA.t113 two_stage_opamp_dummy_magic_0.VD3.t1 VDDA.t114 sky130_fd_pr__pfet_01v8 ad=1.4 pd=7.8 as=0.7 ps=3.9 w=3.5 l=0.2
X112 VOUT-.t40 two_stage_opamp_dummy_magic_0.cap_res_X.t117 sky130_fd_pr__cap_mim_m3_1 l=2 w=2
X113 bgr_0.V_TOP.t18 VDDA.t295 sky130_fd_pr__cap_mim_m3_1 l=2 w=2
X114 GNDA.t18 two_stage_opamp_dummy_magic_0.Y.t28 two_stage_opamp_dummy_magic_0.V_CMFB_S3.t1 VDDA.t157 sky130_fd_pr__pfet_01v8 ad=0.4 pd=2.4 as=0.4 ps=2.4 w=2 l=0.15
X115 VOUT-.t41 two_stage_opamp_dummy_magic_0.cap_res_X.t116 sky130_fd_pr__cap_mim_m3_1 l=2 w=2
X116 bgr_0.1st_Vout_1.t15 bgr_0.cap_res1.t16 sky130_fd_pr__cap_mim_m3_1 l=2 w=2
X117 two_stage_opamp_dummy_magic_0.V_CMFB_S2.t8 bgr_0.NFET_GATE_10uA.t9 GNDA.t102 GNDA.t101 sky130_fd_pr__nfet_01v8 ad=0.2 pd=1.4 as=0.2 ps=1.4 w=1 l=0.15
X118 VDDA.t262 two_stage_opamp_dummy_magic_0.X.t31 two_stage_opamp_dummy_magic_0.V_CMFB_S2.t1 GNDA.t80 sky130_fd_pr__nfet_01v8 ad=0.6 pd=3.4 as=0.6 ps=3.4 w=3 l=0.15
X119 two_stage_opamp_dummy_magic_0.VD4.t31 two_stage_opamp_dummy_magic_0.Vb2.t13 two_stage_opamp_dummy_magic_0.Y.t7 two_stage_opamp_dummy_magic_0.VD4.t30 sky130_fd_pr__pfet_01v8 ad=0.7 pd=3.9 as=0.7 ps=3.9 w=3.5 l=0.2
X120 bgr_0.V_TOP.t19 VDDA.t296 sky130_fd_pr__cap_mim_m3_1 l=2 w=2
X121 bgr_0.V_mir1.t11 bgr_0.V_mir1.t10 VDDA.t388 VDDA.t387 sky130_fd_pr__pfet_01v8 ad=0.2 pd=1.4 as=0.2 ps=1.4 w=1 l=0.2
X122 VOUT+.t41 two_stage_opamp_dummy_magic_0.cap_res_Y.t116 sky130_fd_pr__cap_mim_m3_1 l=2 w=2
X123 two_stage_opamp_dummy_magic_0.V_CMFB_S3.t0 bgr_0.PFET_GATE_10uA.t11 VDDA.t123 VDDA.t122 sky130_fd_pr__pfet_01v8 ad=0.2 pd=1.4 as=0.2 ps=1.4 w=1 l=0.15
X124 GNDA.t295 GNDA.t293 two_stage_opamp_dummy_magic_0.Vb3.t6 GNDA.t294 sky130_fd_pr__nfet_01v8 ad=0.4 pd=2.8 as=0.2 ps=1.4 w=1 l=0.15
X125 GNDA.t292 GNDA.t290 two_stage_opamp_dummy_magic_0.Y.t19 GNDA.t291 sky130_fd_pr__nfet_01v8 ad=0.6 pd=3.8 as=0.3 ps=1.9 w=1.5 l=0.15
X126 GNDA.t134 two_stage_opamp_dummy_magic_0.X.t32 two_stage_opamp_dummy_magic_0.V_CMFB_S1.t11 VDDA.t320 sky130_fd_pr__pfet_01v8 ad=0.4 pd=2.4 as=0.4 ps=2.4 w=2 l=0.15
X127 VOUT+.t42 two_stage_opamp_dummy_magic_0.cap_res_Y.t115 sky130_fd_pr__cap_mim_m3_1 l=2 w=2
X128 GNDA.t150 two_stage_opamp_dummy_magic_0.V_tail_gate.t13 two_stage_opamp_dummy_magic_0.V_p.t20 GNDA.t149 sky130_fd_pr__nfet_01v8 ad=0.5 pd=2.9 as=0.5 ps=2.9 w=2.5 l=0.15
X129 GNDA.t135 two_stage_opamp_dummy_magic_0.X.t33 two_stage_opamp_dummy_magic_0.V_CMFB_S1.t10 VDDA.t321 sky130_fd_pr__pfet_01v8 ad=0.4 pd=2.4 as=0.4 ps=2.4 w=2 l=0.15
X130 two_stage_opamp_dummy_magic_0.X.t17 two_stage_opamp_dummy_magic_0.Vb1.t7 two_stage_opamp_dummy_magic_0.VD2.t8 GNDA.t218 sky130_fd_pr__nfet_01v8 ad=0.3 pd=1.9 as=0.3 ps=1.9 w=1.5 l=0.15
X131 bgr_0.Vin+.t2 bgr_0.V_TOP.t20 VDDA.t300 VDDA.t299 sky130_fd_pr__pfet_01v8 ad=0.6 pd=3.4 as=0.6 ps=3.4 w=3 l=0.5
X132 VOUT+.t43 two_stage_opamp_dummy_magic_0.cap_res_Y.t114 sky130_fd_pr__cap_mim_m3_1 l=2 w=2
X133 VOUT-.t42 two_stage_opamp_dummy_magic_0.cap_res_X.t115 sky130_fd_pr__cap_mim_m3_1 l=2 w=2
X134 two_stage_opamp_dummy_magic_0.V_p.t36 VIN+.t0 two_stage_opamp_dummy_magic_0.VD2.t16 GNDA.t328 sky130_fd_pr__nfet_01v8 ad=0.3 pd=1.9 as=0.3 ps=1.9 w=1.5 l=0.15
X135 bgr_0.V_mir2.t3 two_stage_opamp_dummy_magic_0.V_err_amp_ref.t9 bgr_0.V_p_2.t5 GNDA.t79 sky130_fd_pr__nfet_01v8 ad=0.1 pd=0.9 as=0.1 ps=0.9 w=0.5 l=0.2
X136 VOUT+.t44 two_stage_opamp_dummy_magic_0.cap_res_Y.t113 sky130_fd_pr__cap_mim_m3_1 l=2 w=2
X137 VOUT-.t4 a_5750_2946.t1 GNDA.t54 sky130_fd_pr__res_xhigh_po_0p35 l=2.63
X138 VOUT-.t43 two_stage_opamp_dummy_magic_0.cap_res_X.t114 sky130_fd_pr__cap_mim_m3_1 l=2 w=2
X139 VOUT-.t44 two_stage_opamp_dummy_magic_0.cap_res_X.t113 sky130_fd_pr__cap_mim_m3_1 l=2 w=2
X140 bgr_0.V_TOP.t21 VDDA.t301 sky130_fd_pr__cap_mim_m3_1 l=2 w=2
X141 bgr_0.1st_Vout_1.t0 bgr_0.Vin+.t7 bgr_0.V_p_1.t6 GNDA.t53 sky130_fd_pr__nfet_01v8 ad=0.1 pd=0.9 as=0.1 ps=0.9 w=0.5 l=0.2
X142 two_stage_opamp_dummy_magic_0.V_CMFB_S4.t14 GNDA.t287 GNDA.t289 GNDA.t288 sky130_fd_pr__nfet_01v8 ad=0.2 pd=1.4 as=0.4 ps=2.8 w=1 l=0.15
X143 bgr_0.1st_Vout_1.t16 bgr_0.cap_res1.t15 sky130_fd_pr__cap_mim_m3_1 l=2 w=2
X144 VOUT+.t14 two_stage_opamp_dummy_magic_0.Y.t29 VDDA.t129 VDDA.t128 sky130_fd_pr__pfet_01v8 ad=1.2 pd=6.4 as=1.2 ps=6.4 w=6 l=0.15
X145 two_stage_opamp_dummy_magic_0.V_p.t4 two_stage_opamp_dummy_magic_0.V_tail_gate.t14 GNDA.t31 GNDA.t30 sky130_fd_pr__nfet_01v8 ad=0.5 pd=2.9 as=0.5 ps=2.9 w=2.5 l=0.15
X146 two_stage_opamp_dummy_magic_0.V_p.t27 VIN+.t1 two_stage_opamp_dummy_magic_0.VD2.t5 GNDA.t177 sky130_fd_pr__nfet_01v8 ad=0.3 pd=1.9 as=0.3 ps=1.9 w=1.5 l=0.15
X147 VOUT+.t45 two_stage_opamp_dummy_magic_0.cap_res_Y.t112 sky130_fd_pr__cap_mim_m3_1 l=2 w=2
X148 VOUT+.t46 two_stage_opamp_dummy_magic_0.cap_res_Y.t111 sky130_fd_pr__cap_mim_m3_1 l=2 w=2
X149 VDDA.t437 bgr_0.V_mir1.t17 bgr_0.1st_Vout_1.t10 VDDA.t436 sky130_fd_pr__pfet_01v8 ad=0.2 pd=1.4 as=0.2 ps=1.4 w=1 l=0.2
X150 two_stage_opamp_dummy_magic_0.VD3.t31 two_stage_opamp_dummy_magic_0.Vb3.t10 VDDA.t400 VDDA.t399 sky130_fd_pr__pfet_01v8 ad=0.7 pd=3.9 as=0.7 ps=3.9 w=3.5 l=0.2
X151 VOUT-.t45 two_stage_opamp_dummy_magic_0.cap_res_X.t112 sky130_fd_pr__cap_mim_m3_1 l=2 w=2
X152 two_stage_opamp_dummy_magic_0.V_tail_gate.t6 bgr_0.PFET_GATE_10uA.t12 VDDA.t171 VDDA.t170 sky130_fd_pr__pfet_01v8 ad=0.2 pd=1.4 as=0.2 ps=1.4 w=1 l=0.15
X153 VOUT+.t47 two_stage_opamp_dummy_magic_0.cap_res_Y.t110 sky130_fd_pr__cap_mim_m3_1 l=2 w=2
X154 VOUT+.t48 two_stage_opamp_dummy_magic_0.cap_res_Y.t109 sky130_fd_pr__cap_mim_m3_1 l=2 w=2
X155 VOUT+.t49 two_stage_opamp_dummy_magic_0.cap_res_Y.t108 sky130_fd_pr__cap_mim_m3_1 l=2 w=2
X156 two_stage_opamp_dummy_magic_0.V_err_amp_ref.t5 a_n9700_9790.t1 GNDA.t86 sky130_fd_pr__res_xhigh_po_0p35 l=6.3
X157 bgr_0.1st_Vout_1.t17 bgr_0.cap_res1.t14 sky130_fd_pr__cap_mim_m3_1 l=2 w=2
X158 VOUT+.t16 GNDA.t284 GNDA.t286 GNDA.t285 sky130_fd_pr__nfet_01v8 ad=1.4 pd=7.4 as=2.8 ps=14.8 w=7 l=0.6
X159 bgr_0.V_TOP.t22 VDDA.t445 sky130_fd_pr__cap_mim_m3_1 l=2 w=2
X160 bgr_0.PFET_GATE_10uA.t7 bgr_0.1st_Vout_2.t16 VDDA.t424 VDDA.t423 sky130_fd_pr__pfet_01v8 ad=0.2 pd=1.4 as=0.2 ps=1.4 w=1 l=0.2
X161 VOUT+.t50 two_stage_opamp_dummy_magic_0.cap_res_Y.t107 sky130_fd_pr__cap_mim_m3_1 l=2 w=2
X162 VOUT+.t51 two_stage_opamp_dummy_magic_0.cap_res_Y.t106 sky130_fd_pr__cap_mim_m3_1 l=2 w=2
X163 two_stage_opamp_dummy_magic_0.VD2.t20 two_stage_opamp_dummy_magic_0.Vb1.t8 two_stage_opamp_dummy_magic_0.X.t23 GNDA.t334 sky130_fd_pr__nfet_01v8 ad=0.3 pd=1.9 as=0.3 ps=1.9 w=1.5 l=0.15
X164 VOUT-.t46 two_stage_opamp_dummy_magic_0.cap_res_X.t111 sky130_fd_pr__cap_mim_m3_1 l=2 w=2
X165 VOUT-.t47 two_stage_opamp_dummy_magic_0.cap_res_X.t110 sky130_fd_pr__cap_mim_m3_1 l=2 w=2
X166 VOUT-.t10 two_stage_opamp_dummy_magic_0.X.t34 VDDA.t311 VDDA.t310 sky130_fd_pr__pfet_01v8 ad=1.2 pd=6.4 as=1.2 ps=6.4 w=6 l=0.15
X167 VOUT-.t11 two_stage_opamp_dummy_magic_0.X.t35 VDDA.t313 VDDA.t312 sky130_fd_pr__pfet_01v8 ad=1.2 pd=6.4 as=1.2 ps=6.4 w=6 l=0.15
X168 VDDA.t339 two_stage_opamp_dummy_magic_0.Y.t30 two_stage_opamp_dummy_magic_0.V_CMFB_S4.t8 GNDA.t141 sky130_fd_pr__nfet_01v8 ad=0.6 pd=3.4 as=0.6 ps=3.4 w=3 l=0.15
X169 VOUT-.t48 two_stage_opamp_dummy_magic_0.cap_res_X.t109 sky130_fd_pr__cap_mim_m3_1 l=2 w=2
X170 VOUT-.t49 two_stage_opamp_dummy_magic_0.cap_res_X.t108 sky130_fd_pr__cap_mim_m3_1 l=2 w=2
X171 VOUT-.t8 two_stage_opamp_dummy_magic_0.V_b_2nd_stage.t3 GNDA.t92 GNDA.t91 sky130_fd_pr__nfet_01v8 ad=1.4 pd=7.4 as=1.4 ps=7.4 w=7 l=0.6
X172 bgr_0.1st_Vout_1.t18 bgr_0.cap_res1.t13 sky130_fd_pr__cap_mim_m3_1 l=2 w=2
X173 two_stage_opamp_dummy_magic_0.cap_res_X.t0 two_stage_opamp_dummy_magic_0.X.t4 GNDA.t21 sky130_fd_pr__res_high_po_1p41 l=1.41
X174 VOUT-.t50 two_stage_opamp_dummy_magic_0.cap_res_X.t107 sky130_fd_pr__cap_mim_m3_1 l=2 w=2
X175 GNDA.t20 two_stage_opamp_dummy_magic_0.Y.t31 two_stage_opamp_dummy_magic_0.V_CMFB_S3.t2 VDDA.t158 sky130_fd_pr__pfet_01v8 ad=0.4 pd=2.4 as=0.4 ps=2.4 w=2 l=0.15
X176 VOUT+.t52 two_stage_opamp_dummy_magic_0.cap_res_Y.t105 sky130_fd_pr__cap_mim_m3_1 l=2 w=2
X177 two_stage_opamp_dummy_magic_0.VD3.t32 two_stage_opamp_dummy_magic_0.Vb3.t11 VDDA.t416 VDDA.t415 sky130_fd_pr__pfet_01v8 ad=0.7 pd=3.9 as=0.7 ps=3.9 w=3.5 l=0.2
X178 VOUT+.t53 two_stage_opamp_dummy_magic_0.cap_res_Y.t104 sky130_fd_pr__cap_mim_m3_1 l=2 w=2
X179 VDDA.t414 bgr_0.PFET_GATE_10uA.t13 two_stage_opamp_dummy_magic_0.V_tail_gate.t5 VDDA.t413 sky130_fd_pr__pfet_01v8 ad=0.2 pd=1.4 as=0.2 ps=1.4 w=1 l=0.15
X180 two_stage_opamp_dummy_magic_0.VD3.t29 two_stage_opamp_dummy_magic_0.Vb2.t14 two_stage_opamp_dummy_magic_0.X.t12 two_stage_opamp_dummy_magic_0.VD3.t28 sky130_fd_pr__pfet_01v8 ad=0.7 pd=3.9 as=0.7 ps=3.9 w=3.5 l=0.2
X181 two_stage_opamp_dummy_magic_0.err_amp_out.t5 two_stage_opamp_dummy_magic_0.err_amp_mir.t17 GNDA.t7 GNDA.t6 sky130_fd_pr__nfet_01v8 ad=0.1 pd=0.9 as=0.1 ps=0.9 w=0.5 l=0.15
X182 two_stage_opamp_dummy_magic_0.Vb2.t10 GNDA.t281 GNDA.t283 GNDA.t282 sky130_fd_pr__nfet_01v8 ad=0.2 pd=1.4 as=0.4 ps=2.8 w=1 l=0.15
X183 VDDA.t263 two_stage_opamp_dummy_magic_0.X.t36 two_stage_opamp_dummy_magic_0.V_CMFB_S2.t2 GNDA.t83 sky130_fd_pr__nfet_01v8 ad=0.6 pd=3.4 as=0.6 ps=3.4 w=3 l=0.15
X184 GNDA.t227 GNDA.t280 bgr_0.Vbe2.t6 sky130_fd_pr__pnp_05v5_W3p40L3p40
**devattr s=462400,2720
X185 VOUT-.t51 two_stage_opamp_dummy_magic_0.cap_res_X.t106 sky130_fd_pr__cap_mim_m3_1 l=2 w=2
X186 bgr_0.START_UP_NFET1.t0 bgr_0.START_UP.t4 bgr_0.START_UP.t5 GNDA.t154 sky130_fd_pr__nfet_01v8 ad=0.2 pd=1.4 as=0.4 ps=2.8 w=1 l=10
X187 bgr_0.1st_Vout_2.t6 bgr_0.V_CUR_REF_REG.t4 bgr_0.V_p_2.t1 GNDA.t152 sky130_fd_pr__nfet_01v8 ad=0.1 pd=0.9 as=0.1 ps=0.9 w=0.5 l=0.2
X188 two_stage_opamp_dummy_magic_0.VD1.t8 two_stage_opamp_dummy_magic_0.Vb1.t9 two_stage_opamp_dummy_magic_0.Y.t13 GNDA.t193 sky130_fd_pr__nfet_01v8 ad=0.3 pd=1.9 as=0.3 ps=1.9 w=1.5 l=0.15
X189 VOUT-.t52 two_stage_opamp_dummy_magic_0.cap_res_X.t105 sky130_fd_pr__cap_mim_m3_1 l=2 w=2
X190 bgr_0.1st_Vout_2.t17 bgr_0.cap_res2.t17 sky130_fd_pr__cap_mim_m3_1 l=2 w=2
X191 VOUT+.t54 two_stage_opamp_dummy_magic_0.cap_res_Y.t103 sky130_fd_pr__cap_mim_m3_1 l=2 w=2
X192 bgr_0.PFET_GATE_10uA.t6 bgr_0.1st_Vout_2.t18 VDDA.t422 VDDA.t421 sky130_fd_pr__pfet_01v8 ad=0.2 pd=1.4 as=0.2 ps=1.4 w=1 l=0.2
X193 two_stage_opamp_dummy_magic_0.V_CMFB_S3.t9 bgr_0.PFET_GATE_10uA.t14 VDDA.t370 VDDA.t369 sky130_fd_pr__pfet_01v8 ad=0.2 pd=1.4 as=0.2 ps=1.4 w=1 l=0.15
X194 VDDA.t112 VDDA.t110 two_stage_opamp_dummy_magic_0.V_err_p.t1 VDDA.t111 sky130_fd_pr__pfet_01v8 ad=0.2 pd=1.8 as=0.1 ps=0.9 w=0.5 l=0.15
X195 VOUT-.t53 two_stage_opamp_dummy_magic_0.cap_res_X.t104 sky130_fd_pr__cap_mim_m3_1 l=2 w=2
X196 VOUT-.t54 two_stage_opamp_dummy_magic_0.cap_res_X.t103 sky130_fd_pr__cap_mim_m3_1 l=2 w=2
X197 VOUT-.t55 two_stage_opamp_dummy_magic_0.cap_res_X.t102 sky130_fd_pr__cap_mim_m3_1 l=2 w=2
X198 GNDA.t5 two_stage_opamp_dummy_magic_0.V_tail_gate.t15 two_stage_opamp_dummy_magic_0.V_p.t1 GNDA.t4 sky130_fd_pr__nfet_01v8 ad=0.5 pd=2.9 as=0.5 ps=2.9 w=2.5 l=0.15
X199 two_stage_opamp_dummy_magic_0.err_amp_out.t10 two_stage_opamp_dummy_magic_0.V_err_amp_ref.t10 two_stage_opamp_dummy_magic_0.V_err_p.t17 VDDA.t203 sky130_fd_pr__pfet_01v8 ad=0.1 pd=0.9 as=0.1 ps=0.9 w=0.5 l=0.15
X200 GNDA.t84 two_stage_opamp_dummy_magic_0.X.t37 two_stage_opamp_dummy_magic_0.V_CMFB_S1.t9 VDDA.t264 sky130_fd_pr__pfet_01v8 ad=0.4 pd=2.4 as=0.4 ps=2.4 w=2 l=0.15
X201 a_5230_5758.t0 two_stage_opamp_dummy_magic_0.V_tot.t0 GNDA.t17 sky130_fd_pr__res_xhigh_po_0p35 l=1.85
X202 bgr_0.1st_Vout_2.t19 bgr_0.cap_res2.t16 sky130_fd_pr__cap_mim_m3_1 l=2 w=2
X203 VDDA.t223 bgr_0.V_mir1.t8 bgr_0.V_mir1.t9 VDDA.t222 sky130_fd_pr__pfet_01v8 ad=0.2 pd=1.4 as=0.2 ps=1.4 w=1 l=0.2
X204 VDDA.t441 bgr_0.PFET_GATE_10uA.t15 two_stage_opamp_dummy_magic_0.V_CMFB_S1.t16 VDDA.t440 sky130_fd_pr__pfet_01v8 ad=0.2 pd=1.4 as=0.2 ps=1.4 w=1 l=0.15
X205 two_stage_opamp_dummy_magic_0.Vb2.t6 bgr_0.NFET_GATE_10uA.t10 GNDA.t346 GNDA.t345 sky130_fd_pr__nfet_01v8 ad=0.2 pd=1.4 as=0.2 ps=1.4 w=1 l=0.15
X206 VOUT+.t55 two_stage_opamp_dummy_magic_0.cap_res_Y.t102 sky130_fd_pr__cap_mim_m3_1 l=2 w=2
X207 VOUT+.t56 two_stage_opamp_dummy_magic_0.cap_res_Y.t101 sky130_fd_pr__cap_mim_m3_1 l=2 w=2
X208 VOUT+.t57 two_stage_opamp_dummy_magic_0.cap_res_Y.t100 sky130_fd_pr__cap_mim_m3_1 l=2 w=2
X209 VOUT-.t56 two_stage_opamp_dummy_magic_0.cap_res_X.t101 sky130_fd_pr__cap_mim_m3_1 l=2 w=2
X210 VOUT+.t58 two_stage_opamp_dummy_magic_0.cap_res_Y.t99 sky130_fd_pr__cap_mim_m3_1 l=2 w=2
X211 two_stage_opamp_dummy_magic_0.V_p.t7 VIN+.t2 two_stage_opamp_dummy_magic_0.VD2.t4 GNDA.t60 sky130_fd_pr__nfet_01v8 ad=0.3 pd=1.9 as=0.3 ps=1.9 w=1.5 l=0.15
X212 VOUT-.t57 two_stage_opamp_dummy_magic_0.cap_res_X.t100 sky130_fd_pr__cap_mim_m3_1 l=2 w=2
X213 two_stage_opamp_dummy_magic_0.V_p.t40 two_stage_opamp_dummy_magic_0.V_tail_gate.t16 GNDA.t353 GNDA.t352 sky130_fd_pr__nfet_01v8 ad=0.5 pd=2.9 as=0.5 ps=2.9 w=2.5 l=0.15
X214 VDDA.t195 two_stage_opamp_dummy_magic_0.Vb3.t12 two_stage_opamp_dummy_magic_0.VD4.t11 VDDA.t194 sky130_fd_pr__pfet_01v8 ad=0.7 pd=3.9 as=0.7 ps=3.9 w=3.5 l=0.2
X215 VOUT+.t13 two_stage_opamp_dummy_magic_0.Y.t32 VDDA.t324 VDDA.t323 sky130_fd_pr__pfet_01v8 ad=1.2 pd=6.4 as=1.2 ps=6.4 w=6 l=0.15
X216 bgr_0.1st_Vout_2.t20 bgr_0.cap_res2.t15 sky130_fd_pr__cap_mim_m3_1 l=2 w=2
X217 two_stage_opamp_dummy_magic_0.Y.t18 two_stage_opamp_dummy_magic_0.VD4.t35 two_stage_opamp_dummy_magic_0.VD4.t37 two_stage_opamp_dummy_magic_0.VD4.t36 sky130_fd_pr__pfet_01v8 ad=0.7 pd=3.9 as=1.4 ps=7.8 w=3.5 l=0.2
X218 two_stage_opamp_dummy_magic_0.V_p.t17 VIN-.t2 two_stage_opamp_dummy_magic_0.VD1.t11 GNDA.t57 sky130_fd_pr__nfet_01v8 ad=0.3 pd=1.9 as=0.3 ps=1.9 w=1.5 l=0.15
X219 two_stage_opamp_dummy_magic_0.V_tail_gate.t11 GNDA.t277 GNDA.t279 GNDA.t278 sky130_fd_pr__nfet_01v8 ad=0.3 pd=1.9 as=0.6 ps=3.8 w=1.5 l=0.15
X220 VOUT-.t58 two_stage_opamp_dummy_magic_0.cap_res_X.t99 sky130_fd_pr__cap_mim_m3_1 l=2 w=2
X221 bgr_0.V_CUR_REF_REG.t1 bgr_0.PFET_GATE_10uA.t16 VDDA.t133 VDDA.t132 sky130_fd_pr__pfet_01v8 ad=0.2 pd=1.4 as=0.2 ps=1.4 w=1 l=0.15
X222 bgr_0.PFET_GATE_10uA.t1 VDDA.t107 VDDA.t109 VDDA.t108 sky130_fd_pr__pfet_01v8 ad=0.2 pd=1.4 as=0.4 ps=2.8 w=1 l=0.2
X223 two_stage_opamp_dummy_magic_0.V_err_mir_p.t18 two_stage_opamp_dummy_magic_0.V_err_amp_ref.t11 two_stage_opamp_dummy_magic_0.V_err_gate.t11 VDDA.t204 sky130_fd_pr__pfet_01v8 ad=0.1 pd=0.9 as=0.1 ps=0.9 w=0.5 l=0.15
X224 VOUT-.t59 two_stage_opamp_dummy_magic_0.cap_res_X.t98 sky130_fd_pr__cap_mim_m3_1 l=2 w=2
X225 VOUT-.t60 two_stage_opamp_dummy_magic_0.cap_res_X.t97 sky130_fd_pr__cap_mim_m3_1 l=2 w=2
X226 VOUT+.t59 two_stage_opamp_dummy_magic_0.cap_res_Y.t98 sky130_fd_pr__cap_mim_m3_1 l=2 w=2
X227 VOUT+.t60 two_stage_opamp_dummy_magic_0.cap_res_Y.t97 sky130_fd_pr__cap_mim_m3_1 l=2 w=2
X228 two_stage_opamp_dummy_magic_0.VD2.t18 two_stage_opamp_dummy_magic_0.Vb1.t10 two_stage_opamp_dummy_magic_0.X.t20 GNDA.t331 sky130_fd_pr__nfet_01v8 ad=0.3 pd=1.9 as=0.3 ps=1.9 w=1.5 l=0.15
X229 VOUT-.t61 two_stage_opamp_dummy_magic_0.cap_res_X.t96 sky130_fd_pr__cap_mim_m3_1 l=2 w=2
X230 bgr_0.V_p_2.t4 two_stage_opamp_dummy_magic_0.V_err_amp_ref.t12 bgr_0.V_mir2.t0 GNDA.t76 sky130_fd_pr__nfet_01v8 ad=0.1 pd=0.9 as=0.1 ps=0.9 w=0.5 l=0.2
X231 a_14520_5738.t0 two_stage_opamp_dummy_magic_0.V_tot.t1 GNDA.t67 sky130_fd_pr__res_xhigh_po_0p35 l=1.75
X232 bgr_0.1st_Vout_2.t21 bgr_0.cap_res2.t14 sky130_fd_pr__cap_mim_m3_1 l=2 w=2
X233 bgr_0.cap_res1.t0 bgr_0.V_TOP.t9 GNDA.t44 sky130_fd_pr__res_high_po_0p35 l=2.05
X234 VOUT-.t12 two_stage_opamp_dummy_magic_0.X.t38 VDDA.t318 VDDA.t317 sky130_fd_pr__pfet_01v8 ad=1.2 pd=6.4 as=1.2 ps=6.4 w=6 l=0.15
X235 VOUT-.t62 two_stage_opamp_dummy_magic_0.cap_res_X.t95 sky130_fd_pr__cap_mim_m3_1 l=2 w=2
X236 VDDA.t200 two_stage_opamp_dummy_magic_0.Y.t33 two_stage_opamp_dummy_magic_0.V_CMFB_S4.t7 GNDA.t48 sky130_fd_pr__nfet_01v8 ad=0.6 pd=3.4 as=0.6 ps=3.4 w=3 l=0.15
X237 VDDA.t468 bgr_0.V_mir1.t6 bgr_0.V_mir1.t7 VDDA.t467 sky130_fd_pr__pfet_01v8 ad=0.2 pd=1.4 as=0.2 ps=1.4 w=1 l=0.2
X238 VOUT+.t61 two_stage_opamp_dummy_magic_0.cap_res_Y.t96 sky130_fd_pr__cap_mim_m3_1 l=2 w=2
X239 VOUT+.t62 two_stage_opamp_dummy_magic_0.cap_res_Y.t95 sky130_fd_pr__cap_mim_m3_1 l=2 w=2
X240 VOUT-.t63 two_stage_opamp_dummy_magic_0.cap_res_X.t94 sky130_fd_pr__cap_mim_m3_1 l=2 w=2