* NGSPICE file created from bgr_opamp_dummy_magic_19.ext - technology: sky130A

.subckt two_stage_opamp_dummy_magic_26 V_CMFB_S1 V_CMFB_S3 Vb3 Vb2 V_CMFB_S2 V_CMFB_S4
+ VOUT- VOUT+ V_tail_gate V_err_amp_ref V_err_gate Vb1 VIN- VIN+ w_109120_3940# a_109160_2900#
X0 V_source V_tail_gate a_109160_2900# a_109160_2900# sky130_fd_pr__nfet_01v8 ad=0.5 pd=2.9 as=0.5 ps=2.9 w=2.5 l=0.15
X1 VOUT+ cap_res_Y sky130_fd_pr__cap_mim_m3_1 l=2 w=2
X2 a_108510_3708# V_tot a_109160_2900# sky130_fd_pr__res_xhigh_po_0p35 l=1.75
X3 VOUT+ cap_res_Y sky130_fd_pr__cap_mim_m3_1 l=2 w=2
X4 w_109120_3940# Y VOUT+ w_109120_3940# sky130_fd_pr__pfet_01v8 ad=1.2 pd=6.4 as=1.2 ps=6.4 w=6 l=0.15
X5 VOUT- cap_res_X sky130_fd_pr__cap_mim_m3_1 l=2 w=2
X6 VOUT- cap_res_X sky130_fd_pr__cap_mim_m3_1 l=2 w=2
X7 VOUT- cap_res_X sky130_fd_pr__cap_mim_m3_1 l=2 w=2
X8 VOUT+ V_b_2nd_stage a_109160_2900# a_109160_2900# sky130_fd_pr__nfet_01v8 ad=1.4 pd=7.4 as=1.4 ps=7.4 w=7 l=0.6
X9 w_109120_3940# Y V_CMFB_S4 a_109160_2900# sky130_fd_pr__nfet_01v8 ad=0.6 pd=3.4 as=0.6 ps=3.4 w=3 l=0.15
X10 VOUT+ cap_res_Y sky130_fd_pr__cap_mim_m3_1 l=2 w=2
X11 Y Vb2 VD4 VD4 sky130_fd_pr__pfet_01v8 ad=0.7 pd=3.9 as=0.7 ps=3.9 w=3.5 l=0.2
X12 VOUT- cap_res_X sky130_fd_pr__cap_mim_m3_1 l=2 w=2
X13 VOUT+ cap_res_Y sky130_fd_pr__cap_mim_m3_1 l=2 w=2
X14 Y Vb1 VD2 a_109160_2900# sky130_fd_pr__nfet_01v8 ad=0.3 pd=1.9 as=0.3 ps=1.9 w=1.5 l=0.15
X15 VOUT+ cap_res_Y sky130_fd_pr__cap_mim_m3_1 l=2 w=2
X16 VOUT+ cap_res_Y sky130_fd_pr__cap_mim_m3_1 l=2 w=2
X17 VOUT+ cap_res_Y sky130_fd_pr__cap_mim_m3_1 l=2 w=2
X18 w_109120_3940# Y VOUT+ w_109120_3940# sky130_fd_pr__pfet_01v8 ad=1.2 pd=6.4 as=1.2 ps=6.4 w=6 l=0.15
X19 X Vb1 VD1 a_109160_2900# sky130_fd_pr__nfet_01v8 ad=0.3 pd=1.9 as=0.3 ps=1.9 w=1.5 l=0.15
X20 VOUT+ cap_res_Y sky130_fd_pr__cap_mim_m3_1 l=2 w=2
X21 a_109160_2900# V_tail_gate a_112660_1000# a_109160_2900# sky130_fd_pr__nfet_01v8 ad=0.5 pd=2.9 as=0.5 ps=2.9 w=2.5 l=0.15
X22 VOUT- cap_res_X sky130_fd_pr__cap_mim_m3_1 l=2 w=2
X23 VD2 a_109160_2900# a_109160_2900# a_109160_2900# sky130_fd_pr__nfet_01v8 ad=0.3 pd=1.9 as=0.6 ps=3.8 w=1.5 l=0.15
X24 VOUT- cap_res_X sky130_fd_pr__cap_mim_m3_1 l=2 w=2
X25 V_b_2nd_stage a_118760_n94# a_109160_2900# sky130_fd_pr__res_xhigh_po_0p35 l=2.63
X26 VD3 w_109120_3940# w_109120_3940# w_109120_3940# sky130_fd_pr__pfet_01v8 ad=0.7 pd=3.9 as=1.4 ps=7.8 w=3.5 l=0.2
X27 VOUT+ cap_res_Y sky130_fd_pr__cap_mim_m3_1 l=2 w=2
X28 VOUT- cap_res_X sky130_fd_pr__cap_mim_m3_1 l=2 w=2
X29 VD1 VIN- V_source a_109160_2900# sky130_fd_pr__nfet_01v8 ad=0.3 pd=1.9 as=0.3 ps=1.9 w=1.5 l=0.15
X30 a_109160_2900# Y V_CMFB_S3 w_109120_3940# sky130_fd_pr__pfet_01v8 ad=0.4 pd=2.4 as=0.4 ps=2.4 w=2 l=0.15
X31 VOUT- cap_res_X sky130_fd_pr__cap_mim_m3_1 l=2 w=2
X32 VOUT+ cap_res_Y sky130_fd_pr__cap_mim_m3_1 l=2 w=2
X33 VOUT+ cap_res_Y sky130_fd_pr__cap_mim_m3_1 l=2 w=2
X34 VOUT- cap_res_X sky130_fd_pr__cap_mim_m3_1 l=2 w=2
X35 VOUT+ cap_res_Y sky130_fd_pr__cap_mim_m3_1 l=2 w=2
X36 VOUT+ cap_res_Y sky130_fd_pr__cap_mim_m3_1 l=2 w=2
X37 VOUT- cap_res_X sky130_fd_pr__cap_mim_m3_1 l=2 w=2
X38 VOUT+ cap_res_Y sky130_fd_pr__cap_mim_m3_1 l=2 w=2
X39 VOUT+ cap_res_Y sky130_fd_pr__cap_mim_m3_1 l=2 w=2
X40 VOUT+ cap_res_Y sky130_fd_pr__cap_mim_m3_1 l=2 w=2
X41 w_109120_3940# X VOUT- w_109120_3940# sky130_fd_pr__pfet_01v8 ad=1.2 pd=6.4 as=1.2 ps=6.4 w=6 l=0.15
X42 V_CMFB_S1 X a_109160_2900# w_109120_3940# sky130_fd_pr__pfet_01v8 ad=0.4 pd=2.4 as=0.4 ps=2.4 w=2 l=0.15
X43 VOUT- cap_res_X sky130_fd_pr__cap_mim_m3_1 l=2 w=2
X44 VOUT- cap_res_X sky130_fd_pr__cap_mim_m3_1 l=2 w=2
X45 VD3 Vb3 w_109120_3940# w_109120_3940# sky130_fd_pr__pfet_01v8 ad=0.7 pd=3.9 as=0.7 ps=3.9 w=3.5 l=0.2
X46 VD4 Vb3 w_109120_3940# w_109120_3940# sky130_fd_pr__pfet_01v8 ad=0.7 pd=3.9 as=0.7 ps=3.9 w=3.5 l=0.2
X47 a_109160_2900# a_109160_2900# Vb1 a_109160_2900# sky130_fd_pr__nfet_01v8 ad=0.6 pd=3.8 as=0.3 ps=1.9 w=1.5 l=0.15
X48 VOUT- cap_res_X sky130_fd_pr__cap_mim_m3_1 l=2 w=2
X49 VOUT- cap_res_X sky130_fd_pr__cap_mim_m3_1 l=2 w=2
X50 VOUT+ cap_res_Y sky130_fd_pr__cap_mim_m3_1 l=2 w=2
X51 VOUT+ cap_res_Y sky130_fd_pr__cap_mim_m3_1 l=2 w=2
X52 w_109120_3940# Y V_CMFB_S4 a_109160_2900# sky130_fd_pr__nfet_01v8 ad=0.6 pd=3.4 as=0.6 ps=3.4 w=3 l=0.15
X53 VOUT+ cap_res_Y sky130_fd_pr__cap_mim_m3_1 l=2 w=2
X54 VOUT+ cap_res_Y sky130_fd_pr__cap_mim_m3_1 l=2 w=2
X55 VD4 VD4 Y VD4 sky130_fd_pr__pfet_01v8 ad=1.4 pd=7.8 as=0.7 ps=3.9 w=3.5 l=0.2
X56 VOUT+ cap_res_Y sky130_fd_pr__cap_mim_m3_1 l=2 w=2
X57 VOUT+ cap_res_Y sky130_fd_pr__cap_mim_m3_1 l=2 w=2
X58 VOUT- cap_res_X sky130_fd_pr__cap_mim_m3_1 l=2 w=2
X59 VOUT- cap_res_X sky130_fd_pr__cap_mim_m3_1 l=2 w=2
X60 Y Vb1 VD2 a_109160_2900# sky130_fd_pr__nfet_01v8 ad=0.3 pd=1.9 as=0.3 ps=1.9 w=1.5 l=0.15
X61 VOUT- cap_res_X sky130_fd_pr__cap_mim_m3_1 l=2 w=2
X62 a_109160_2900# a_109160_2900# VOUT- a_109160_2900# sky130_fd_pr__nfet_01v8 ad=2.8 pd=14.8 as=1.4 ps=7.4 w=7 l=0.6
X63 VOUT- cap_res_X sky130_fd_pr__cap_mim_m3_1 l=2 w=2
X64 VOUT- cap_res_X sky130_fd_pr__cap_mim_m3_1 l=2 w=2
X65 X Vb1 VD1 a_109160_2900# sky130_fd_pr__nfet_01v8 ad=0.3 pd=1.9 as=0.3 ps=1.9 w=1.5 l=0.15
X66 VOUT+ V_b_2nd_stage a_109160_2900# a_109160_2900# sky130_fd_pr__nfet_01v8 ad=1.4 pd=7.4 as=1.4 ps=7.4 w=7 l=0.6
X67 X Vb1 VD1 a_109160_2900# sky130_fd_pr__nfet_01v8 ad=0.3 pd=1.9 as=0.3 ps=1.9 w=1.5 l=0.15
X68 VOUT- cap_res_X sky130_fd_pr__cap_mim_m3_1 l=2 w=2
X69 a_109160_2900# a_109160_2900# a_109160_2900# a_109160_2900# sky130_fd_pr__nfet_01v8 ad=1 pd=5.8 as=51.4 ps=289.8 w=2.5 l=0.15
X70 VOUT+ cap_res_Y sky130_fd_pr__cap_mim_m3_1 l=2 w=2
X71 VOUT- cap_res_X sky130_fd_pr__cap_mim_m3_1 l=2 w=2
X72 VOUT+ Y w_109120_3940# w_109120_3940# sky130_fd_pr__pfet_01v8 ad=1.2 pd=6.4 as=1.2 ps=6.4 w=6 l=0.15
X73 VD1 VIN- V_source a_109160_2900# sky130_fd_pr__nfet_01v8 ad=0.3 pd=1.9 as=0.3 ps=1.9 w=1.5 l=0.15
X74 err_amp_out V_err_amp_ref V_err_p w_109120_3940# sky130_fd_pr__pfet_01v8 ad=0.5 pd=2.9 as=0.5 ps=2.9 w=2.5 l=0.15
X75 VOUT+ cap_res_Y sky130_fd_pr__cap_mim_m3_1 l=2 w=2
X76 a_109160_2900# Y V_CMFB_S3 w_109120_3940# sky130_fd_pr__pfet_01v8 ad=0.4 pd=2.4 as=0.4 ps=2.4 w=2 l=0.15
X77 VOUT- cap_res_X sky130_fd_pr__cap_mim_m3_1 l=2 w=2
X78 VOUT+ cap_res_Y sky130_fd_pr__cap_mim_m3_1 l=2 w=2
X79 w_109120_3940# X V_CMFB_S2 a_109160_2900# sky130_fd_pr__nfet_01v8 ad=0.6 pd=3.4 as=0.6 ps=3.4 w=3 l=0.15
X80 VOUT+ cap_res_Y sky130_fd_pr__cap_mim_m3_1 l=2 w=2
X81 w_109120_3940# w_109120_3940# w_109120_3940# w_109120_3940# sky130_fd_pr__pfet_01v8 ad=0.72 pd=4.4 as=68.76 ps=379 w=1.8 l=0.2
X82 VOUT- cap_res_X sky130_fd_pr__cap_mim_m3_1 l=2 w=2
X83 VOUT+ cap_res_Y sky130_fd_pr__cap_mim_m3_1 l=2 w=2
X84 VOUT+ cap_res_Y sky130_fd_pr__cap_mim_m3_1 l=2 w=2
X85 VOUT+ cap_res_Y sky130_fd_pr__cap_mim_m3_1 l=2 w=2
X86 VOUT- cap_res_X sky130_fd_pr__cap_mim_m3_1 l=2 w=2
X87 VD3 Vb2 X VD3 sky130_fd_pr__pfet_01v8 ad=0.7 pd=3.9 as=0.7 ps=3.9 w=3.5 l=0.2
X88 VD3 Vb3 w_109120_3940# w_109120_3940# sky130_fd_pr__pfet_01v8 ad=0.7 pd=3.9 as=0.7 ps=3.9 w=3.5 l=0.2
X89 VD2 Vb1 Y a_109160_2900# sky130_fd_pr__nfet_01v8 ad=0.3 pd=1.9 as=0.3 ps=1.9 w=1.5 l=0.15
X90 VOUT- cap_res_X sky130_fd_pr__cap_mim_m3_1 l=2 w=2
X91 VOUT- cap_res_X sky130_fd_pr__cap_mim_m3_1 l=2 w=2
X92 w_109120_3940# X VOUT- w_109120_3940# sky130_fd_pr__pfet_01v8 ad=1.2 pd=6.4 as=1.2 ps=6.4 w=6 l=0.15
X93 a_108630_3708# V_tot a_109160_2900# sky130_fd_pr__res_xhigh_po_0p35 l=1.75
X94 V_CMFB_S1 X a_109160_2900# w_109120_3940# sky130_fd_pr__pfet_01v8 ad=0.4 pd=2.4 as=0.4 ps=2.4 w=2 l=0.15
X95 VOUT- V_b_2nd_stage a_109160_2900# a_109160_2900# sky130_fd_pr__nfet_01v8 ad=1.4 pd=7.4 as=1.4 ps=7.4 w=7 l=0.6
X96 V_source V_tail_gate a_109160_2900# a_109160_2900# sky130_fd_pr__nfet_01v8 ad=0.5 pd=2.9 as=0.5 ps=2.9 w=2.5 l=0.15
X97 VOUT+ cap_res_Y sky130_fd_pr__cap_mim_m3_1 l=2 w=2
X98 VOUT+ cap_res_Y sky130_fd_pr__cap_mim_m3_1 l=2 w=2
X99 a_109160_2900# a_109160_2900# VD2 a_109160_2900# sky130_fd_pr__nfet_01v8 ad=0.6 pd=3.8 as=0.3 ps=1.9 w=1.5 l=0.15
X100 VOUT+ cap_res_Y sky130_fd_pr__cap_mim_m3_1 l=2 w=2
X101 a_109160_2900# a_109160_2900# a_109160_2900# a_109160_2900# sky130_fd_pr__nfet_01v8 ad=0.5 pd=2.9 as=0 ps=0 w=2.5 l=0.15
X102 VOUT- cap_res_X sky130_fd_pr__cap_mim_m3_1 l=2 w=2
X103 Vb2_Vb3 Vb2_Vb3 Vb2_Vb3 Vb2_Vb3 sky130_fd_pr__pfet_01v8 ad=1.4 pd=7.8 as=5.6 ps=31.2 w=3.5 l=0.2
X104 VOUT+ cap_res_Y sky130_fd_pr__cap_mim_m3_1 l=2 w=2
X105 VD4 Vb2 Y VD4 sky130_fd_pr__pfet_01v8 ad=0.7 pd=3.9 as=0.7 ps=3.9 w=3.5 l=0.2
X106 VOUT- cap_res_X sky130_fd_pr__cap_mim_m3_1 l=2 w=2
X107 w_109120_3940# a_109160_2900# a_109160_2900# a_109160_2900# sky130_fd_pr__nfet_01v8 ad=0.6 pd=3.4 as=1.2 ps=6.8 w=3 l=0.15
X108 VOUT- cap_res_X sky130_fd_pr__cap_mim_m3_1 l=2 w=2
X109 VOUT- cap_res_X sky130_fd_pr__cap_mim_m3_1 l=2 w=2
X110 VOUT- cap_res_X sky130_fd_pr__cap_mim_m3_1 l=2 w=2
X111 VOUT- cap_res_X sky130_fd_pr__cap_mim_m3_1 l=2 w=2
X112 VD3 Vb2 X VD3 sky130_fd_pr__pfet_01v8 ad=0.7 pd=3.9 as=0.7 ps=3.9 w=3.5 l=0.2
X113 a_109160_2900# a_109160_2900# w_109120_3940# a_109160_2900# sky130_fd_pr__nfet_01v8 ad=1.2 pd=6.8 as=0.6 ps=3.4 w=3 l=0.15
X114 Y a_109160_2900# a_109160_2900# a_109160_2900# sky130_fd_pr__nfet_01v8 ad=0.3 pd=1.9 as=0.6 ps=3.8 w=1.5 l=0.15
X115 a_109160_2900# X V_CMFB_S1 w_109120_3940# sky130_fd_pr__pfet_01v8 ad=0.4 pd=2.4 as=0.4 ps=2.4 w=2 l=0.15
X116 w_109120_3940# Vb3 VD3 w_109120_3940# sky130_fd_pr__pfet_01v8 ad=0.7 pd=3.9 as=0.7 ps=3.9 w=3.5 l=0.2
X117 X Vb1 VD1 a_109160_2900# sky130_fd_pr__nfet_01v8 ad=0.3 pd=1.9 as=0.3 ps=1.9 w=1.5 l=0.15
X118 VOUT- cap_res_X sky130_fd_pr__cap_mim_m3_1 l=2 w=2
X119 a_109160_2900# V_tail_gate V_source a_109160_2900# sky130_fd_pr__nfet_01v8 ad=0.5 pd=2.9 as=0.5 ps=2.9 w=2.5 l=0.15
X120 VOUT+ cap_res_Y sky130_fd_pr__cap_mim_m3_1 l=2 w=2
X121 VOUT+ Y w_109120_3940# w_109120_3940# sky130_fd_pr__pfet_01v8 ad=1.2 pd=6.4 as=1.2 ps=6.4 w=6 l=0.15
X122 VD1 a_109160_2900# a_109160_2900# a_109160_2900# sky130_fd_pr__nfet_01v8 ad=0.3 pd=1.9 as=0.6 ps=3.8 w=1.5 l=0.15
X123 Vb2_Vb3 w_109120_3940# w_109120_3940# w_109120_3940# sky130_fd_pr__pfet_01v8 ad=0.7 pd=3.9 as=1.4 ps=7.8 w=3.5 l=0.2
X124 w_109120_3940# V_err_gate V_err_p w_109120_3940# sky130_fd_pr__pfet_01v8 ad=0.5 pd=2.9 as=0.5 ps=2.9 w=2.5 l=0.15
X125 a_109160_2900# a_109160_2900# err_amp_out a_109160_2900# sky130_fd_pr__nfet_01v8 ad=1 pd=5.8 as=0.5 ps=2.9 w=2.5 l=0.15
X126 VOUT- cap_res_X sky130_fd_pr__cap_mim_m3_1 l=2 w=2
X127 VOUT- cap_res_X sky130_fd_pr__cap_mim_m3_1 l=2 w=2
X128 VOUT+ cap_res_Y sky130_fd_pr__cap_mim_m3_1 l=2 w=2
X129 VOUT+ cap_res_Y sky130_fd_pr__cap_mim_m3_1 l=2 w=2
X130 Vb2_Vb3 Vb2_Vb3 Vb3 Vb2_Vb3 sky130_fd_pr__pfet_01v8 ad=1.4 pd=7.8 as=0.7 ps=3.9 w=3.5 l=0.2
X131 a_118660_3708# V_CMFB_S2 a_109160_2900# sky130_fd_pr__res_xhigh_po_0p35 l=1.75
X132 w_109120_3940# X VOUT- w_109120_3940# sky130_fd_pr__pfet_01v8 ad=1.2 pd=6.4 as=1.2 ps=6.4 w=6 l=0.15
X133 a_109160_2900# Y V_CMFB_S3 w_109120_3940# sky130_fd_pr__pfet_01v8 ad=0.4 pd=2.4 as=0.4 ps=2.4 w=2 l=0.15
X134 w_109120_3940# Vb3 VD4 w_109120_3940# sky130_fd_pr__pfet_01v8 ad=0.7 pd=3.9 as=0.7 ps=3.9 w=3.5 l=0.2
X135 V_CMFB_S1 X a_109160_2900# w_109120_3940# sky130_fd_pr__pfet_01v8 ad=0.4 pd=2.4 as=0.4 ps=2.4 w=2 l=0.15
X136 V_source V_tail_gate a_109160_2900# a_109160_2900# sky130_fd_pr__nfet_01v8 ad=0.5 pd=2.9 as=0.5 ps=2.9 w=2.5 l=0.15
X137 V_tail_gate VIN- a_112660_1000# a_109160_2900# sky130_fd_pr__nfet_01v8 ad=0.3 pd=1.9 as=0.3 ps=1.9 w=1.5 l=0.15
X138 V_source VIN+ VD2 a_109160_2900# sky130_fd_pr__nfet_01v8 ad=0.3 pd=1.9 as=0.3 ps=1.9 w=1.5 l=0.15
X139 VOUT- cap_res_X sky130_fd_pr__cap_mim_m3_1 l=2 w=2
X140 VD3 VD3 X VD3 sky130_fd_pr__pfet_01v8 ad=1.4 pd=7.8 as=0.7 ps=3.9 w=3.5 l=0.2
X141 VOUT- cap_res_X sky130_fd_pr__cap_mim_m3_1 l=2 w=2
X142 VOUT- cap_res_X sky130_fd_pr__cap_mim_m3_1 l=2 w=2
X143 VOUT+ cap_res_Y sky130_fd_pr__cap_mim_m3_1 l=2 w=2
X144 VOUT+ cap_res_Y sky130_fd_pr__cap_mim_m3_1 l=2 w=2
X145 VOUT- cap_res_X sky130_fd_pr__cap_mim_m3_1 l=2 w=2
X146 V_CMFB_S4 Y w_109120_3940# a_109160_2900# sky130_fd_pr__nfet_01v8 ad=0.6 pd=3.4 as=0.6 ps=3.4 w=3 l=0.15
X147 VOUT- X w_109120_3940# w_109120_3940# sky130_fd_pr__pfet_01v8 ad=1.2 pd=6.4 as=1.2 ps=6.4 w=6 l=0.15
X148 VOUT- cap_res_X sky130_fd_pr__cap_mim_m3_1 l=2 w=2
X149 VOUT+ cap_res_Y sky130_fd_pr__cap_mim_m3_1 l=2 w=2
X150 VOUT+ cap_res_Y sky130_fd_pr__cap_mim_m3_1 l=2 w=2
X151 a_109160_2900# X V_CMFB_S1 w_109120_3940# sky130_fd_pr__pfet_01v8 ad=0.4 pd=2.4 as=0.4 ps=2.4 w=2 l=0.15
X152 VOUT+ cap_res_Y sky130_fd_pr__cap_mim_m3_1 l=2 w=2
X153 VOUT+ cap_res_Y sky130_fd_pr__cap_mim_m3_1 l=2 w=2
X154 VOUT+ cap_res_Y sky130_fd_pr__cap_mim_m3_1 l=2 w=2
X155 X Vb1 VD1 a_109160_2900# sky130_fd_pr__nfet_01v8 ad=0.3 pd=1.9 as=0.3 ps=1.9 w=1.5 l=0.15
X156 Vb1 Vb1 Vb1_2 a_109160_2900# sky130_fd_pr__nfet_01v8 ad=0.3 pd=1.9 as=0.3 ps=1.9 w=1.5 l=0.15
X157 VOUT- cap_res_X sky130_fd_pr__cap_mim_m3_1 l=2 w=2
X158 VOUT- cap_res_X sky130_fd_pr__cap_mim_m3_1 l=2 w=2
X159 VOUT+ cap_res_Y sky130_fd_pr__cap_mim_m3_1 l=2 w=2
X160 VOUT- cap_res_X sky130_fd_pr__cap_mim_m3_1 l=2 w=2
X161 VOUT+ cap_res_Y sky130_fd_pr__cap_mim_m3_1 l=2 w=2
X162 a_109160_2900# err_amp_mir err_amp_mir a_109160_2900# sky130_fd_pr__nfet_01v8 ad=0.5 pd=2.9 as=0.5 ps=2.9 w=2.5 l=0.15
X163 VOUT- cap_res_X sky130_fd_pr__cap_mim_m3_1 l=2 w=2
X164 w_109120_3940# X V_CMFB_S2 a_109160_2900# sky130_fd_pr__nfet_01v8 ad=0.6 pd=3.4 as=0.6 ps=3.4 w=3 l=0.15
X165 VOUT- cap_res_X sky130_fd_pr__cap_mim_m3_1 l=2 w=2
X166 a_118780_3708# V_tot a_109160_2900# sky130_fd_pr__res_xhigh_po_0p35 l=1.75
X167 X Vb2 VD3 VD3 sky130_fd_pr__pfet_01v8 ad=0.7 pd=3.9 as=0.7 ps=3.9 w=3.5 l=0.2
X168 w_109120_3940# Vb3 VD3 w_109120_3940# sky130_fd_pr__pfet_01v8 ad=0.7 pd=3.9 as=0.7 ps=3.9 w=3.5 l=0.2
X169 a_108630_3708# V_CMFB_S3 a_109160_2900# sky130_fd_pr__res_xhigh_po_0p35 l=1.75
X170 VOUT+ cap_res_Y sky130_fd_pr__cap_mim_m3_1 l=2 w=2
X171 VOUT+ a_109160_2900# a_109160_2900# a_109160_2900# sky130_fd_pr__nfet_01v8 ad=1.4 pd=7.4 as=2.8 ps=14.8 w=7 l=0.6
X172 w_109120_3940# Vb3 VD4 w_109120_3940# sky130_fd_pr__pfet_01v8 ad=0.7 pd=3.9 as=0.7 ps=3.9 w=3.5 l=0.2
X173 VOUT+ cap_res_Y sky130_fd_pr__cap_mim_m3_1 l=2 w=2
X174 VOUT- cap_res_X sky130_fd_pr__cap_mim_m3_1 l=2 w=2
X175 VOUT+ Y w_109120_3940# w_109120_3940# sky130_fd_pr__pfet_01v8 ad=1.2 pd=6.4 as=1.2 ps=6.4 w=6 l=0.15
X176 a_109160_2900# a_109160_2900# Y a_109160_2900# sky130_fd_pr__nfet_01v8 ad=0.6 pd=3.8 as=0.3 ps=1.9 w=1.5 l=0.15
X177 VOUT+ cap_res_Y sky130_fd_pr__cap_mim_m3_1 l=2 w=2
X178 w_109120_3940# X VOUT- w_109120_3940# sky130_fd_pr__pfet_01v8 ad=1.2 pd=6.4 as=1.2 ps=6.4 w=6 l=0.15
X179 VOUT- cap_res_X sky130_fd_pr__cap_mim_m3_1 l=2 w=2
X180 a_109160_2900# Y V_CMFB_S3 w_109120_3940# sky130_fd_pr__pfet_01v8 ad=0.4 pd=2.4 as=0.4 ps=2.4 w=2 l=0.15
X181 Vb3 Vb2 Vb2_Vb3 Vb2_Vb3 sky130_fd_pr__pfet_01v8 ad=0.7 pd=3.9 as=0.7 ps=3.9 w=3.5 l=0.2
X182 VOUT- cap_res_X sky130_fd_pr__cap_mim_m3_1 l=2 w=2
X183 V_source VIN+ VD2 a_109160_2900# sky130_fd_pr__nfet_01v8 ad=0.3 pd=1.9 as=0.3 ps=1.9 w=1.5 l=0.15
X184 VOUT- cap_res_X sky130_fd_pr__cap_mim_m3_1 l=2 w=2
X185 V_source V_tail_gate a_109160_2900# a_109160_2900# sky130_fd_pr__nfet_01v8 ad=0.5 pd=2.9 as=0.5 ps=2.9 w=2.5 l=0.15
X186 V_source V_tail_gate a_109160_2900# a_109160_2900# sky130_fd_pr__nfet_01v8 ad=0.5 pd=2.9 as=0.5 ps=2.9 w=2.5 l=0.15
X187 V_tail_gate a_109160_2900# a_109160_2900# a_109160_2900# sky130_fd_pr__nfet_01v8 ad=0.3 pd=1.9 as=0.6 ps=3.8 w=1.5 l=0.15
X188 Y Vb2 VD4 VD4 sky130_fd_pr__pfet_01v8 ad=0.7 pd=3.9 as=0.7 ps=3.9 w=3.5 l=0.2
X189 V_err_gate V_tot V_err_mir_p w_109120_3940# sky130_fd_pr__pfet_01v8 ad=0.5 pd=2.9 as=0.5 ps=2.9 w=2.5 l=0.15
X190 a_109160_2900# a_109160_2900# VD1 a_109160_2900# sky130_fd_pr__nfet_01v8 ad=0.6 pd=3.8 as=0.3 ps=1.9 w=1.5 l=0.15
X191 VOUT- cap_res_X sky130_fd_pr__cap_mim_m3_1 l=2 w=2
X192 VOUT+ cap_res_Y sky130_fd_pr__cap_mim_m3_1 l=2 w=2
X193 X Vb2 VD3 VD3 sky130_fd_pr__pfet_01v8 ad=0.7 pd=3.9 as=0.7 ps=3.9 w=3.5 l=0.2
X194 VOUT+ cap_res_Y sky130_fd_pr__cap_mim_m3_1 l=2 w=2
X195 VOUT+ cap_res_Y sky130_fd_pr__cap_mim_m3_1 l=2 w=2
X196 VOUT+ cap_res_Y sky130_fd_pr__cap_mim_m3_1 l=2 w=2
X197 VOUT+ cap_res_Y sky130_fd_pr__cap_mim_m3_1 l=2 w=2
X198 VOUT- a_109160_2900# a_109160_2900# a_109160_2900# sky130_fd_pr__nfet_01v8 ad=1.4 pd=7.4 as=2.8 ps=14.8 w=7 l=0.6
X199 VOUT- cap_res_X sky130_fd_pr__cap_mim_m3_1 l=2 w=2
X200 V_source Vb1 Vb1_2 a_109160_2900# sky130_fd_pr__nfet_01v8 ad=0.6 pd=3.8 as=0.6 ps=3.8 w=1.5 l=3
X201 VOUT- X w_109120_3940# w_109120_3940# sky130_fd_pr__pfet_01v8 ad=1.2 pd=6.4 as=1.2 ps=6.4 w=6 l=0.15
X202 VOUT+ cap_res_Y sky130_fd_pr__cap_mim_m3_1 l=2 w=2
X203 VOUT- cap_res_X sky130_fd_pr__cap_mim_m3_1 l=2 w=2
X204 VOUT- cap_res_X sky130_fd_pr__cap_mim_m3_1 l=2 w=2
X205 VOUT- cap_res_X sky130_fd_pr__cap_mim_m3_1 l=2 w=2
X206 a_109160_2900# err_amp_out V_source a_109160_2900# sky130_fd_pr__nfet_01v8 ad=0.5 pd=2.9 as=0.5 ps=2.9 w=2.5 l=0.15
X207 X a_109160_2900# a_109160_2900# a_109160_2900# sky130_fd_pr__nfet_01v8 ad=0.3 pd=1.9 as=0.6 ps=3.8 w=1.5 l=0.15
X208 w_109120_3940# Vb3 Vb2_Vb3 w_109120_3940# sky130_fd_pr__pfet_01v8 ad=0.7 pd=3.9 as=0.7 ps=3.9 w=3.5 l=0.2
X209 X Vb2 VD3 VD3 sky130_fd_pr__pfet_01v8 ad=0.7 pd=3.9 as=0.7 ps=3.9 w=3.5 l=0.2
X210 Vb1 Vb1 Vb1_2 a_109160_2900# sky130_fd_pr__nfet_01v8 ad=0.3 pd=1.9 as=0.3 ps=1.9 w=1.5 l=0.15
X211 VOUT+ cap_res_Y sky130_fd_pr__cap_mim_m3_1 l=2 w=2
X212 VOUT- cap_res_X sky130_fd_pr__cap_mim_m3_1 l=2 w=2
X213 VOUT- cap_res_X sky130_fd_pr__cap_mim_m3_1 l=2 w=2
X214 VOUT+ cap_res_Y sky130_fd_pr__cap_mim_m3_1 l=2 w=2
X215 w_109120_3940# X V_CMFB_S2 a_109160_2900# sky130_fd_pr__nfet_01v8 ad=0.6 pd=3.4 as=0.6 ps=3.4 w=3 l=0.15
X216 Vb2_2 Vb2 w_109120_3940# w_109120_3940# sky130_fd_pr__pfet_01v8 ad=0.36 pd=2.2 as=0.36 ps=2.2 w=1.8 l=0.2
X217 VOUT+ cap_res_Y sky130_fd_pr__cap_mim_m3_1 l=2 w=2
X218 VOUT+ cap_res_Y sky130_fd_pr__cap_mim_m3_1 l=2 w=2
X219 VOUT+ cap_res_Y sky130_fd_pr__cap_mim_m3_1 l=2 w=2
X220 VOUT- cap_res_X sky130_fd_pr__cap_mim_m3_1 l=2 w=2
X221 a_118780_3708# V_CMFB_S1 a_109160_2900# sky130_fd_pr__res_xhigh_po_0p35 l=1.75
X222 VOUT- cap_res_X sky130_fd_pr__cap_mim_m3_1 l=2 w=2
X223 VOUT- cap_res_X sky130_fd_pr__cap_mim_m3_1 l=2 w=2
X224 VD4 Vb3 w_109120_3940# w_109120_3940# sky130_fd_pr__pfet_01v8 ad=0.7 pd=3.9 as=0.7 ps=3.9 w=3.5 l=0.2
X225 VOUT- cap_res_X sky130_fd_pr__cap_mim_m3_1 l=2 w=2
X226 VOUT+ Y w_109120_3940# w_109120_3940# sky130_fd_pr__pfet_01v8 ad=1.2 pd=6.4 as=1.2 ps=6.4 w=6 l=0.15
X227 cap_res_X X a_109160_2900# sky130_fd_pr__res_high_po_1p41 l=1.41
X228 VD2 Vb1 Y a_109160_2900# sky130_fd_pr__nfet_01v8 ad=0.3 pd=1.9 as=0.3 ps=1.9 w=1.5 l=0.15
X229 VOUT+ cap_res_Y sky130_fd_pr__cap_mim_m3_1 l=2 w=2
X230 VD4 w_109120_3940# w_109120_3940# w_109120_3940# sky130_fd_pr__pfet_01v8 ad=0.7 pd=3.9 as=1.4 ps=7.8 w=3.5 l=0.2
X231 a_109160_2900# Y V_CMFB_S3 w_109120_3940# sky130_fd_pr__pfet_01v8 ad=0.4 pd=2.4 as=0.4 ps=2.4 w=2 l=0.15
X232 VOUT+ cap_res_Y sky130_fd_pr__cap_mim_m3_1 l=2 w=2
X233 a_109160_2900# a_109160_2900# VOUT+ a_109160_2900# sky130_fd_pr__nfet_01v8 ad=2.8 pd=14.8 as=1.4 ps=7.4 w=7 l=0.6
X234 V_source VIN+ VD2 a_109160_2900# sky130_fd_pr__nfet_01v8 ad=0.3 pd=1.9 as=0.3 ps=1.9 w=1.5 l=0.15
X235 VOUT+ cap_res_Y sky130_fd_pr__cap_mim_m3_1 l=2 w=2
X236 V_source V_tail_gate a_109160_2900# a_109160_2900# sky130_fd_pr__nfet_01v8 ad=0.5 pd=2.9 as=0.5 ps=2.9 w=2.5 l=0.15
X237 VOUT+ cap_res_Y sky130_fd_pr__cap_mim_m3_1 l=2 w=2
X238 w_109120_3940# V_err_gate V_err_mir_p w_109120_3940# sky130_fd_pr__pfet_01v8 ad=0.5 pd=2.9 as=0.5 ps=2.9 w=2.5 l=0.15
X239 VOUT- cap_res_X sky130_fd_pr__cap_mim_m3_1 l=2 w=2
X240 V_source VIN- VD1 a_109160_2900# sky130_fd_pr__nfet_01v8 ad=0.3 pd=1.9 as=0.3 ps=1.9 w=1.5 l=0.15
X241 VOUT+ cap_res_Y sky130_fd_pr__cap_mim_m3_1 l=2 w=2
X242 V_source VIN- VD1 a_109160_2900# sky130_fd_pr__nfet_01v8 ad=0.3 pd=1.9 as=0.3 ps=1.9 w=1.5 l=0.15
X243 VOUT+ cap_res_Y sky130_fd_pr__cap_mim_m3_1 l=2 w=2
X244 V_CMFB_S2 X w_109120_3940# a_109160_2900# sky130_fd_pr__nfet_01v8 ad=0.6 pd=3.4 as=0.6 ps=3.4 w=3 l=0.15
X245 VOUT- cap_res_X sky130_fd_pr__cap_mim_m3_1 l=2 w=2
X246 VOUT+ cap_res_Y sky130_fd_pr__cap_mim_m3_1 l=2 w=2
X247 VOUT- cap_res_X sky130_fd_pr__cap_mim_m3_1 l=2 w=2
X248 VOUT+ cap_res_Y sky130_fd_pr__cap_mim_m3_1 l=2 w=2
X249 VOUT- cap_res_X sky130_fd_pr__cap_mim_m3_1 l=2 w=2
X250 VOUT- cap_res_X sky130_fd_pr__cap_mim_m3_1 l=2 w=2
X251 VD3 Vb3 w_109120_3940# w_109120_3940# sky130_fd_pr__pfet_01v8 ad=0.7 pd=3.9 as=0.7 ps=3.9 w=3.5 l=0.2
X252 VOUT+ cap_res_Y sky130_fd_pr__cap_mim_m3_1 l=2 w=2
X253 a_109160_2900# X V_CMFB_S1 w_109120_3940# sky130_fd_pr__pfet_01v8 ad=0.4 pd=2.4 as=0.4 ps=2.4 w=2 l=0.15
X254 VOUT- cap_res_X sky130_fd_pr__cap_mim_m3_1 l=2 w=2
X255 a_109160_2900# V_tail_gate V_source a_109160_2900# sky130_fd_pr__nfet_01v8 ad=0.5 pd=2.9 as=0.5 ps=2.9 w=2.5 l=0.15
X256 VOUT- cap_res_X sky130_fd_pr__cap_mim_m3_1 l=2 w=2
X257 VOUT+ cap_res_Y sky130_fd_pr__cap_mim_m3_1 l=2 w=2
X258 Vb1 a_109160_2900# a_109160_2900# a_109160_2900# sky130_fd_pr__nfet_01v8 ad=0.3 pd=1.9 as=0.6 ps=3.8 w=1.5 l=0.15
X259 VOUT+ cap_res_Y sky130_fd_pr__cap_mim_m3_1 l=2 w=2
X260 VOUT+ cap_res_Y sky130_fd_pr__cap_mim_m3_1 l=2 w=2
X261 VOUT- cap_res_X sky130_fd_pr__cap_mim_m3_1 l=2 w=2
X262 VD3 Vb2 X VD3 sky130_fd_pr__pfet_01v8 ad=0.7 pd=3.9 as=0.7 ps=3.9 w=3.5 l=0.2
X263 VD4 Vb2 Y VD4 sky130_fd_pr__pfet_01v8 ad=0.7 pd=3.9 as=0.7 ps=3.9 w=3.5 l=0.2
X264 V_CMFB_S4 Y w_109120_3940# a_109160_2900# sky130_fd_pr__nfet_01v8 ad=0.6 pd=3.4 as=0.6 ps=3.4 w=3 l=0.15
X265 VOUT- cap_res_X sky130_fd_pr__cap_mim_m3_1 l=2 w=2
X266 w_109120_3940# a_109160_2900# a_109160_2900# a_109160_2900# sky130_fd_pr__nfet_01v8 ad=0.6 pd=3.4 as=1.2 ps=6.8 w=3 l=0.15
X267 VOUT- cap_res_X sky130_fd_pr__cap_mim_m3_1 l=2 w=2
X268 VD4 Vb3 w_109120_3940# w_109120_3940# sky130_fd_pr__pfet_01v8 ad=0.7 pd=3.9 as=0.7 ps=3.9 w=3.5 l=0.2
X269 VOUT+ cap_res_Y sky130_fd_pr__cap_mim_m3_1 l=2 w=2
X270 a_108510_3708# V_CMFB_S4 a_109160_2900# sky130_fd_pr__res_xhigh_po_0p35 l=1.75
X271 VOUT- cap_res_X sky130_fd_pr__cap_mim_m3_1 l=2 w=2
X272 VD2 Vb1 Y a_109160_2900# sky130_fd_pr__nfet_01v8 ad=0.3 pd=1.9 as=0.3 ps=1.9 w=1.5 l=0.15
X273 VOUT+ cap_res_Y sky130_fd_pr__cap_mim_m3_1 l=2 w=2
X274 VOUT+ Y w_109120_3940# w_109120_3940# sky130_fd_pr__pfet_01v8 ad=1.2 pd=6.4 as=1.2 ps=6.4 w=6 l=0.15
X275 a_109160_2900# a_109160_2900# X a_109160_2900# sky130_fd_pr__nfet_01v8 ad=0.6 pd=3.8 as=0.3 ps=1.9 w=1.5 l=0.15
X276 VOUT+ cap_res_Y sky130_fd_pr__cap_mim_m3_1 l=2 w=2
X277 V_source V_tail_gate a_109160_2900# a_109160_2900# sky130_fd_pr__nfet_01v8 ad=0.5 pd=2.9 as=0.5 ps=2.9 w=2.5 l=0.15
X278 a_109160_2900# w_109120_3940# w_109120_3940# w_109120_3940# sky130_fd_pr__pfet_01v8 ad=0.4 pd=2.4 as=0.8 ps=4.8 w=2 l=0.15
X279 VOUT- cap_res_X sky130_fd_pr__cap_mim_m3_1 l=2 w=2
X280 V_source VIN+ VD2 a_109160_2900# sky130_fd_pr__nfet_01v8 ad=0.3 pd=1.9 as=0.3 ps=1.9 w=1.5 l=0.15
X281 VOUT- cap_res_X sky130_fd_pr__cap_mim_m3_1 l=2 w=2
X282 V_b_2nd_stage a_108650_n94# a_109160_2900# sky130_fd_pr__res_xhigh_po_0p35 l=2.63
X283 V_err_gate w_109120_3940# w_109120_3940# w_109120_3940# sky130_fd_pr__pfet_01v8 ad=0.5 pd=2.9 as=1 ps=5.8 w=2.5 l=0.15
X284 V_source VIN- VD1 a_109160_2900# sky130_fd_pr__nfet_01v8 ad=0.3 pd=1.9 as=0.3 ps=1.9 w=1.5 l=0.15
X285 w_109120_3940# w_109120_3940# a_109160_2900# w_109120_3940# sky130_fd_pr__pfet_01v8 ad=0.8 pd=4.8 as=0.4 ps=2.4 w=2 l=0.15
X286 VOUT- cap_res_X sky130_fd_pr__cap_mim_m3_1 l=2 w=2
X287 VOUT+ cap_res_Y sky130_fd_pr__cap_mim_m3_1 l=2 w=2
X288 VOUT+ cap_res_Y sky130_fd_pr__cap_mim_m3_1 l=2 w=2
X289 VOUT- cap_res_X sky130_fd_pr__cap_mim_m3_1 l=2 w=2
X290 a_109160_2900# V_b_2nd_stage VOUT+ a_109160_2900# sky130_fd_pr__nfet_01v8 ad=1.4 pd=7.4 as=1.4 ps=7.4 w=7 l=0.6
X291 VOUT+ cap_res_Y sky130_fd_pr__cap_mim_m3_1 l=2 w=2
X292 Vb2 Vb2_2 Vb2_2 Vb2_2 sky130_fd_pr__pfet_01v8 ad=0.7 pd=3.9 as=1.4 ps=7.8 w=3.5 l=0.2
X293 VOUT- cap_res_X sky130_fd_pr__cap_mim_m3_1 l=2 w=2
X294 VOUT+ cap_res_Y sky130_fd_pr__cap_mim_m3_1 l=2 w=2
X295 VOUT+ cap_res_Y sky130_fd_pr__cap_mim_m3_1 l=2 w=2
X296 w_109120_3940# w_109120_3940# w_109120_3940# w_109120_3940# sky130_fd_pr__pfet_01v8 ad=0.7 pd=3.9 as=0 ps=0 w=3.5 l=0.2
X297 VD3 Vb2 X VD3 sky130_fd_pr__pfet_01v8 ad=0.7 pd=3.9 as=0.7 ps=3.9 w=3.5 l=0.2
X298 VOUT- X w_109120_3940# w_109120_3940# sky130_fd_pr__pfet_01v8 ad=1.2 pd=6.4 as=1.2 ps=6.4 w=6 l=0.15
X299 VOUT- cap_res_X sky130_fd_pr__cap_mim_m3_1 l=2 w=2
X300 VD2 VIN+ V_source a_109160_2900# sky130_fd_pr__nfet_01v8 ad=0.3 pd=1.9 as=0.3 ps=1.9 w=1.5 l=0.15
X301 VOUT- cap_res_X sky130_fd_pr__cap_mim_m3_1 l=2 w=2
X302 VOUT+ cap_res_Y sky130_fd_pr__cap_mim_m3_1 l=2 w=2
X303 a_109160_2900# V_tail_gate V_source a_109160_2900# sky130_fd_pr__nfet_01v8 ad=0.5 pd=2.9 as=0.5 ps=2.9 w=2.5 l=0.15
X304 VOUT- cap_res_X sky130_fd_pr__cap_mim_m3_1 l=2 w=2
X305 VOUT- cap_res_X sky130_fd_pr__cap_mim_m3_1 l=2 w=2
X306 VOUT- cap_res_X sky130_fd_pr__cap_mim_m3_1 l=2 w=2
X307 w_109120_3940# w_109120_3940# Vb2_2 w_109120_3940# sky130_fd_pr__pfet_01v8 ad=0.72 pd=4.4 as=0.36 ps=2.2 w=1.8 l=0.2
X308 VOUT- cap_res_X sky130_fd_pr__cap_mim_m3_1 l=2 w=2
X309 VOUT- cap_res_X sky130_fd_pr__cap_mim_m3_1 l=2 w=2
X310 V_CMFB_S4 Y w_109120_3940# a_109160_2900# sky130_fd_pr__nfet_01v8 ad=0.6 pd=3.4 as=0.6 ps=3.4 w=3 l=0.15
X311 a_109160_2900# V_b_2nd_stage VOUT- a_109160_2900# sky130_fd_pr__nfet_01v8 ad=1.4 pd=7.4 as=1.4 ps=7.4 w=7 l=0.6
X312 w_109120_3940# Vb3 VD4 w_109120_3940# sky130_fd_pr__pfet_01v8 ad=0.7 pd=3.9 as=0.7 ps=3.9 w=3.5 l=0.2
X313 VOUT- cap_res_X sky130_fd_pr__cap_mim_m3_1 l=2 w=2
X314 VOUT- cap_res_X sky130_fd_pr__cap_mim_m3_1 l=2 w=2
X315 VD2 Vb1 Y a_109160_2900# sky130_fd_pr__nfet_01v8 ad=0.3 pd=1.9 as=0.3 ps=1.9 w=1.5 l=0.15
X316 VOUT- cap_res_X sky130_fd_pr__cap_mim_m3_1 l=2 w=2
X317 VOUT+ w_109120_3940# w_109120_3940# w_109120_3940# sky130_fd_pr__pfet_01v8 ad=1.2 pd=6.4 as=2.4 ps=12.8 w=6 l=0.15
X318 VD1 Vb1 X a_109160_2900# sky130_fd_pr__nfet_01v8 ad=0.3 pd=1.9 as=0.3 ps=1.9 w=1.5 l=0.15
X319 VOUT- cap_res_X sky130_fd_pr__cap_mim_m3_1 l=2 w=2
X320 VOUT- cap_res_X sky130_fd_pr__cap_mim_m3_1 l=2 w=2
X321 a_112660_1000# V_tail_gate a_109160_2900# a_109160_2900# sky130_fd_pr__nfet_01v8 ad=0.5 pd=2.9 as=0.5 ps=2.9 w=2.5 l=0.15
X322 VD1 Vb1 X a_109160_2900# sky130_fd_pr__nfet_01v8 ad=0.3 pd=1.9 as=0.3 ps=1.9 w=1.5 l=0.15
X323 X VD3 VD3 VD3 sky130_fd_pr__pfet_01v8 ad=0.7 pd=3.9 as=1.4 ps=7.8 w=3.5 l=0.2
X324 w_109120_3940# w_109120_3940# VOUT+ w_109120_3940# sky130_fd_pr__pfet_01v8 ad=2.4 pd=12.8 as=1.2 ps=6.4 w=6 l=0.15
X325 V_source VIN- VD1 a_109160_2900# sky130_fd_pr__nfet_01v8 ad=0.3 pd=1.9 as=0.3 ps=1.9 w=1.5 l=0.15
X326 w_109120_3940# w_109120_3940# err_amp_out w_109120_3940# sky130_fd_pr__pfet_01v8 ad=1 pd=5.8 as=0.5 ps=2.9 w=2.5 l=0.15
X327 VOUT- cap_res_X sky130_fd_pr__cap_mim_m3_1 l=2 w=2
X328 V_CMFB_S3 Y a_109160_2900# w_109120_3940# sky130_fd_pr__pfet_01v8 ad=0.4 pd=2.4 as=0.4 ps=2.4 w=2 l=0.15
X329 VOUT+ cap_res_Y sky130_fd_pr__cap_mim_m3_1 l=2 w=2
X330 a_109160_2900# a_109160_2900# w_109120_3940# a_109160_2900# sky130_fd_pr__nfet_01v8 ad=1.2 pd=6.8 as=0.6 ps=3.4 w=3 l=0.15
X331 VOUT+ cap_res_Y sky130_fd_pr__cap_mim_m3_1 l=2 w=2
X332 w_109120_3940# Vb3 VD3 w_109120_3940# sky130_fd_pr__pfet_01v8 ad=0.7 pd=3.9 as=0.7 ps=3.9 w=3.5 l=0.2
X333 V_CMFB_S4 Y w_109120_3940# a_109160_2900# sky130_fd_pr__nfet_01v8 ad=0.6 pd=3.4 as=0.6 ps=3.4 w=3 l=0.15
X334 VOUT+ cap_res_Y sky130_fd_pr__cap_mim_m3_1 l=2 w=2
X335 VOUT- cap_res_X sky130_fd_pr__cap_mim_m3_1 l=2 w=2
X336 VOUT- cap_res_X sky130_fd_pr__cap_mim_m3_1 l=2 w=2
X337 a_109160_2900# X V_CMFB_S1 w_109120_3940# sky130_fd_pr__pfet_01v8 ad=0.4 pd=2.4 as=0.4 ps=2.4 w=2 l=0.15
X338 Y Vb2 VD4 VD4 sky130_fd_pr__pfet_01v8 ad=0.7 pd=3.9 as=0.7 ps=3.9 w=3.5 l=0.2
X339 w_109120_3940# w_109120_3940# VD4 w_109120_3940# sky130_fd_pr__pfet_01v8 ad=1.4 pd=7.8 as=0.7 ps=3.9 w=3.5 l=0.2
X340 VOUT+ cap_res_Y sky130_fd_pr__cap_mim_m3_1 l=2 w=2
X341 Y VD4 VD4 VD4 sky130_fd_pr__pfet_01v8 ad=0.7 pd=3.9 as=1.4 ps=7.8 w=3.5 l=0.2
X342 w_109120_3940# Vb3 VD4 w_109120_3940# sky130_fd_pr__pfet_01v8 ad=0.7 pd=3.9 as=0.7 ps=3.9 w=3.5 l=0.2
X343 VOUT+ cap_res_Y sky130_fd_pr__cap_mim_m3_1 l=2 w=2
X344 VOUT+ cap_res_Y sky130_fd_pr__cap_mim_m3_1 l=2 w=2
X345 V_CMFB_S4 Y w_109120_3940# a_109160_2900# sky130_fd_pr__nfet_01v8 ad=0.6 pd=3.4 as=0.6 ps=3.4 w=3 l=0.15
X346 VOUT+ cap_res_Y sky130_fd_pr__cap_mim_m3_1 l=2 w=2
X347 VOUT+ cap_res_Y sky130_fd_pr__cap_mim_m3_1 l=2 w=2
X348 VOUT- cap_res_X sky130_fd_pr__cap_mim_m3_1 l=2 w=2
X349 VOUT+ cap_res_Y sky130_fd_pr__cap_mim_m3_1 l=2 w=2
X350 VOUT- cap_res_X sky130_fd_pr__cap_mim_m3_1 l=2 w=2
X351 VOUT- cap_res_X sky130_fd_pr__cap_mim_m3_1 l=2 w=2
X352 VD2 Vb1 Y a_109160_2900# sky130_fd_pr__nfet_01v8 ad=0.3 pd=1.9 as=0.3 ps=1.9 w=1.5 l=0.15
X353 VOUT- cap_res_X sky130_fd_pr__cap_mim_m3_1 l=2 w=2
X354 VOUT+ cap_res_Y sky130_fd_pr__cap_mim_m3_1 l=2 w=2
X355 VD1 Vb1 X a_109160_2900# sky130_fd_pr__nfet_01v8 ad=0.3 pd=1.9 as=0.3 ps=1.9 w=1.5 l=0.15
X356 VOUT+ cap_res_Y sky130_fd_pr__cap_mim_m3_1 l=2 w=2
X357 V_source V_tail_gate a_109160_2900# a_109160_2900# sky130_fd_pr__nfet_01v8 ad=0.5 pd=2.9 as=0.5 ps=2.9 w=2.5 l=0.15
X358 VOUT- cap_res_X sky130_fd_pr__cap_mim_m3_1 l=2 w=2
X359 V_source VIN- VD1 a_109160_2900# sky130_fd_pr__nfet_01v8 ad=0.3 pd=1.9 as=0.3 ps=1.9 w=1.5 l=0.15
X360 V_err_p V_err_gate w_109120_3940# w_109120_3940# sky130_fd_pr__pfet_01v8 ad=0.5 pd=2.9 as=0.5 ps=2.9 w=2.5 l=0.15
X361 w_109120_3940# Y VOUT+ w_109120_3940# sky130_fd_pr__pfet_01v8 ad=1.2 pd=6.4 as=1.2 ps=6.4 w=6 l=0.15
X362 VOUT+ cap_res_Y sky130_fd_pr__cap_mim_m3_1 l=2 w=2
X363 VOUT- cap_res_X sky130_fd_pr__cap_mim_m3_1 l=2 w=2
X364 VOUT+ cap_res_Y sky130_fd_pr__cap_mim_m3_1 l=2 w=2
X365 V_CMFB_S2 X w_109120_3940# a_109160_2900# sky130_fd_pr__nfet_01v8 ad=0.6 pd=3.4 as=0.6 ps=3.4 w=3 l=0.15
X366 VOUT+ cap_res_Y sky130_fd_pr__cap_mim_m3_1 l=2 w=2
X367 VOUT+ cap_res_Y sky130_fd_pr__cap_mim_m3_1 l=2 w=2
X368 VOUT+ cap_res_Y sky130_fd_pr__cap_mim_m3_1 l=2 w=2
X369 Vb2_2 Vb2 Vb2 Vb2_2 sky130_fd_pr__pfet_01v8 ad=0.7 pd=3.9 as=0.7 ps=3.9 w=3.5 l=0.2
X370 VOUT- cap_res_X sky130_fd_pr__cap_mim_m3_1 l=2 w=2