* PEX produced on Tue Jul 15 06:06:44 PM CEST 2025 using /foss/tools/osic-multitool/iic-pex.sh with m=3 and s=1
* NGSPICE file created from bgr_opamp_dummy_magic_11.ext - technology: sky130A

.subckt bgr_opamp_dummy_magic_11 VDDA GNDA VOUT+ VOUT- VIN+ VIN-
X0 GNDA.t194 bgr_0.NFET_GATE_10uA.t5 two_stage_opamp_dummy_magic_16_0.Vb3.t4 GNDA.t193 sky130_fd_pr__nfet_01v8 ad=0.2 pd=1.4 as=0.2 ps=1.4 w=1 l=0.15
X1 bgr_0.V_TOP.t11 VDDA.t374 VDDA.t376 VDDA.t375 sky130_fd_pr__pfet_01v8 ad=0.2 pd=1.4 as=0.45 ps=2.9 w=1 l=0.15
X2 VOUT-.t19 two_stage_opamp_dummy_magic_16_0.cap_res_X.t138 sky130_fd_pr__cap_mim_m3_1 l=2 w=2
X3 VOUT+.t19 two_stage_opamp_dummy_magic_16_0.cap_res_Y.t138 sky130_fd_pr__cap_mim_m3_1 l=2 w=2
X4 two_stage_opamp_dummy_magic_16_0.V_CMFB_S2.t9 two_stage_opamp_dummy_magic_16_0.X.t25 VDDA.t159 GNDA.t98 sky130_fd_pr__nfet_01v8 ad=0.6 pd=3.4 as=0.6 ps=3.4 w=3 l=0.15
X5 VOUT+.t20 two_stage_opamp_dummy_magic_16_0.cap_res_Y.t137 sky130_fd_pr__cap_mim_m3_1 l=2 w=2
X6 GNDA.t305 two_stage_opamp_dummy_magic_16_0.V_b_2nd_stage.t2 VOUT-.t17 GNDA.t304 sky130_fd_pr__nfet_01v8 ad=1.4 pd=7.4 as=1.4 ps=7.4 w=7 l=0.6
X7 VDDA.t117 bgr_0.V_TOP.t14 two_stage_opamp_dummy_magic_16_0.V_err_amp_ref.t5 VDDA.t116 sky130_fd_pr__pfet_01v8 ad=0.6 pd=3.4 as=0.6 ps=3.4 w=3 l=0.5
X8 VOUT+.t21 two_stage_opamp_dummy_magic_16_0.cap_res_Y.t136 sky130_fd_pr__cap_mim_m3_1 l=2 w=2
X9 two_stage_opamp_dummy_magic_16_0.V_source.t24 two_stage_opamp_dummy_magic_16_0.V_tail_gate.t12 GNDA.t142 GNDA.t141 sky130_fd_pr__nfet_01v8 ad=0.5 pd=2.9 as=0.5 ps=2.9 w=2.5 l=0.15
X10 bgr_0.Vin+.t5 bgr_0.V_TOP.t15 VDDA.t60 VDDA.t59 sky130_fd_pr__pfet_01v8 ad=0.6 pd=3.4 as=0.6 ps=3.4 w=3 l=0.5
X11 VDDA.t263 two_stage_opamp_dummy_magic_16_0.Vb3.t8 two_stage_opamp_dummy_magic_16_0.VD3.t27 VDDA.t262 sky130_fd_pr__pfet_01v8 ad=0.7 pd=3.9 as=0.7 ps=3.9 w=3.5 l=0.2
X12 GNDA.t144 VDDA.t371 VDDA.t373 VDDA.t372 sky130_fd_pr__pfet_01v8 ad=0.4 pd=2.4 as=0.8 ps=4.8 w=2 l=0.15
X13 VDDA.t83 bgr_0.V_mir1.t17 bgr_0.1st_Vout_1.t5 VDDA.t82 sky130_fd_pr__pfet_01v8 ad=0.2 pd=1.4 as=0.2 ps=1.4 w=1 l=0.2
X14 VOUT+.t22 two_stage_opamp_dummy_magic_16_0.cap_res_Y.t135 sky130_fd_pr__cap_mim_m3_1 l=2 w=2
X15 bgr_0.1st_Vout_2.t11 bgr_0.cap_res2.t20 sky130_fd_pr__cap_mim_m3_1 l=2 w=2
X16 two_stage_opamp_dummy_magic_16_0.X.t8 two_stage_opamp_dummy_magic_16_0.Vb2.t11 two_stage_opamp_dummy_magic_16_0.VD3.t11 two_stage_opamp_dummy_magic_16_0.VD3.t10 sky130_fd_pr__pfet_01v8 ad=0.7 pd=3.9 as=0.7 ps=3.9 w=3.5 l=0.2
X17 two_stage_opamp_dummy_magic_16_0.err_amp_mir.t3 VDDA.t368 VDDA.t370 VDDA.t369 sky130_fd_pr__pfet_01v8 ad=0.5 pd=2.9 as=1 ps=5.8 w=2.5 l=0.15
X18 VOUT+.t23 two_stage_opamp_dummy_magic_16_0.cap_res_Y.t134 sky130_fd_pr__cap_mim_m3_1 l=2 w=2
X19 bgr_0.1st_Vout_2.t8 bgr_0.V_CUR_REF_REG.t3 bgr_0.V_p_2.t9 GNDA.t104 sky130_fd_pr__nfet_01v8 ad=0.1 pd=0.9 as=0.1 ps=0.9 w=0.5 l=0.2
X20 VOUT+.t24 two_stage_opamp_dummy_magic_16_0.cap_res_Y.t133 sky130_fd_pr__cap_mim_m3_1 l=2 w=2
X21 VOUT+.t25 two_stage_opamp_dummy_magic_16_0.cap_res_Y.t132 sky130_fd_pr__cap_mim_m3_1 l=2 w=2
X22 a_7460_23988.t0 bgr_0.Vin+.t0 GNDA.t2 sky130_fd_pr__res_xhigh_po_0p35 l=6
X23 VOUT+.t26 two_stage_opamp_dummy_magic_16_0.cap_res_Y.t131 sky130_fd_pr__cap_mim_m3_1 l=2 w=2
X24 bgr_0.1st_Vout_2.t12 bgr_0.cap_res2.t19 sky130_fd_pr__cap_mim_m3_1 l=2 w=2
X25 two_stage_opamp_dummy_magic_16_0.X.t12 two_stage_opamp_dummy_magic_16_0.Vb1.t14 two_stage_opamp_dummy_magic_16_0.VD1.t11 GNDA.t60 sky130_fd_pr__nfet_01v8 ad=0.3 pd=1.9 as=0.3 ps=1.9 w=1.5 l=0.15
X26 VDDA.t367 VDDA.t365 bgr_0.NFET_GATE_10uA.t1 VDDA.t366 sky130_fd_pr__pfet_01v8 ad=0.4 pd=2.8 as=0.2 ps=1.4 w=1 l=0.15
X27 GNDA.t51 a_6930_22564.t0 GNDA.t50 sky130_fd_pr__res_xhigh_po_0p35 l=4.33
X28 two_stage_opamp_dummy_magic_16_0.V_tail_gate.t7 bgr_0.PFET_GATE_10uA.t10 VDDA.t218 VDDA.t217 sky130_fd_pr__pfet_01v8 ad=0.2 pd=1.4 as=0.2 ps=1.4 w=1 l=0.15
X29 VDDA.t47 bgr_0.PFET_GATE_10uA.t11 two_stage_opamp_dummy_magic_16_0.V_tail_gate.t1 VDDA.t46 sky130_fd_pr__pfet_01v8 ad=0.2 pd=1.4 as=0.2 ps=1.4 w=1 l=0.15
X30 VOUT-.t20 two_stage_opamp_dummy_magic_16_0.cap_res_X.t137 sky130_fd_pr__cap_mim_m3_1 l=2 w=2
X31 VOUT-.t21 two_stage_opamp_dummy_magic_16_0.cap_res_X.t136 sky130_fd_pr__cap_mim_m3_1 l=2 w=2
X32 VOUT-.t22 two_stage_opamp_dummy_magic_16_0.cap_res_X.t135 sky130_fd_pr__cap_mim_m3_1 l=2 w=2
X33 two_stage_opamp_dummy_magic_16_0.V_source.t1 VIN+.t0 two_stage_opamp_dummy_magic_16_0.VD2.t19 GNDA.t3 sky130_fd_pr__nfet_01v8 ad=0.3 pd=1.9 as=0.3 ps=1.9 w=1.5 l=0.15
X34 VOUT+.t27 two_stage_opamp_dummy_magic_16_0.cap_res_Y.t130 sky130_fd_pr__cap_mim_m3_1 l=2 w=2
X35 bgr_0.1st_Vout_1.t11 bgr_0.cap_res1.t19 sky130_fd_pr__cap_mim_m3_1 l=2 w=2
X36 bgr_0.1st_Vout_2.t0 bgr_0.V_mir2.t17 VDDA.t5 VDDA.t4 sky130_fd_pr__pfet_01v8 ad=0.2 pd=1.4 as=0.2 ps=1.4 w=1 l=0.2
X37 VDDA.t62 bgr_0.V_TOP.t16 bgr_0.Vin-.t6 VDDA.t61 sky130_fd_pr__pfet_01v8 ad=0.6 pd=3.4 as=0.6 ps=3.4 w=3 l=0.5
X38 bgr_0.1st_Vout_1.t7 bgr_0.Vin+.t6 bgr_0.V_p_1.t4 GNDA.t82 sky130_fd_pr__nfet_01v8 ad=0.1 pd=0.9 as=0.1 ps=0.9 w=0.5 l=0.2
X39 two_stage_opamp_dummy_magic_16_0.Y.t11 two_stage_opamp_dummy_magic_16_0.Vb1.t15 two_stage_opamp_dummy_magic_16_0.VD2.t0 GNDA.t27 sky130_fd_pr__nfet_01v8 ad=0.3 pd=1.9 as=0.3 ps=1.9 w=1.5 l=0.15
X40 GNDA.t152 VDDA.t415 bgr_0.V_p_2.t10 GNDA.t151 sky130_fd_pr__nfet_01v8 ad=1 pd=5.8 as=1 ps=5.8 w=2.5 l=5
X41 VDDA.t261 two_stage_opamp_dummy_magic_16_0.Vb3.t9 two_stage_opamp_dummy_magic_16_0.VD3.t26 VDDA.t260 sky130_fd_pr__pfet_01v8 ad=0.7 pd=3.9 as=0.7 ps=3.9 w=3.5 l=0.2
X42 VOUT+.t28 two_stage_opamp_dummy_magic_16_0.cap_res_Y.t129 sky130_fd_pr__cap_mim_m3_1 l=2 w=2
X43 bgr_0.cap_res2.t0 bgr_0.PFET_GATE_10uA.t0 GNDA.t46 sky130_fd_pr__res_high_po_0p35 l=2.05
X44 bgr_0.1st_Vout_1.t12 bgr_0.cap_res1.t18 sky130_fd_pr__cap_mim_m3_1 l=2 w=2
X45 two_stage_opamp_dummy_magic_16_0.V_CMFB_S4.t9 two_stage_opamp_dummy_magic_16_0.Y.t25 VDDA.t409 GNDA.t307 sky130_fd_pr__nfet_01v8 ad=0.6 pd=3.4 as=0.6 ps=3.4 w=3 l=0.15
X46 two_stage_opamp_dummy_magic_16_0.V_source.t26 VIN+.t1 two_stage_opamp_dummy_magic_16_0.VD2.t18 GNDA.t49 sky130_fd_pr__nfet_01v8 ad=0.3 pd=1.9 as=0.3 ps=1.9 w=1.5 l=0.15
X47 VOUT+.t29 two_stage_opamp_dummy_magic_16_0.cap_res_Y.t128 sky130_fd_pr__cap_mim_m3_1 l=2 w=2
X48 VOUT-.t23 two_stage_opamp_dummy_magic_16_0.cap_res_X.t134 sky130_fd_pr__cap_mim_m3_1 l=2 w=2
X49 two_stage_opamp_dummy_magic_16_0.V_source.t5 two_stage_opamp_dummy_magic_16_0.Vb1.t16 a_9610_2730.t0 GNDA.t19 sky130_fd_pr__nfet_01v8 ad=0.6 pd=3.8 as=0.6 ps=3.8 w=1.5 l=3
X50 VOUT-.t24 two_stage_opamp_dummy_magic_16_0.cap_res_X.t133 sky130_fd_pr__cap_mim_m3_1 l=2 w=2
X51 VOUT-.t25 two_stage_opamp_dummy_magic_16_0.cap_res_X.t132 sky130_fd_pr__cap_mim_m3_1 l=2 w=2
X52 VDDA.t79 bgr_0.1st_Vout_1.t13 bgr_0.V_TOP.t1 VDDA.t78 sky130_fd_pr__pfet_01v8 ad=0.2 pd=1.4 as=0.2 ps=1.4 w=1 l=0.2
X53 GNDA.t320 two_stage_opamp_dummy_magic_16_0.Y.t26 two_stage_opamp_dummy_magic_16_0.V_CMFB_S3.t9 VDDA.t412 sky130_fd_pr__pfet_01v8 ad=0.4 pd=2.4 as=0.4 ps=2.4 w=2 l=0.15
X54 bgr_0.V_TOP.t17 VDDA.t63 sky130_fd_pr__cap_mim_m3_1 l=2 w=2
X55 VOUT-.t26 two_stage_opamp_dummy_magic_16_0.cap_res_X.t131 sky130_fd_pr__cap_mim_m3_1 l=2 w=2
X56 GNDA.t290 GNDA.t289 two_stage_opamp_dummy_magic_16_0.X.t20 GNDA.t205 sky130_fd_pr__nfet_01v8 ad=0.6 pd=3.8 as=0.3 ps=1.9 w=1.5 l=0.15
X57 two_stage_opamp_dummy_magic_16_0.VD4.t11 VDDA.t362 VDDA.t364 VDDA.t363 sky130_fd_pr__pfet_01v8 ad=0.7 pd=3.9 as=1.4 ps=7.8 w=3.5 l=0.2
X58 GNDA.t288 GNDA.t286 bgr_0.NFET_GATE_10uA.t4 GNDA.t287 sky130_fd_pr__nfet_01v8 ad=0.4 pd=2.8 as=0.2 ps=1.4 w=1 l=0.15
X59 bgr_0.START_UP.t5 bgr_0.V_TOP.t18 VDDA.t187 VDDA.t186 sky130_fd_pr__pfet_01v8 ad=0.6 pd=3.4 as=0.6 ps=3.4 w=3 l=0.5
X60 VOUT-.t27 two_stage_opamp_dummy_magic_16_0.cap_res_X.t130 sky130_fd_pr__cap_mim_m3_1 l=2 w=2
X61 two_stage_opamp_dummy_magic_16_0.V_err_gate.t2 bgr_0.NFET_GATE_10uA.t6 GNDA.t192 GNDA.t191 sky130_fd_pr__nfet_01v8 ad=0.2 pd=1.4 as=0.2 ps=1.4 w=1 l=0.15
X62 bgr_0.1st_Vout_1.t10 bgr_0.Vin+.t7 bgr_0.V_p_1.t3 GNDA.t83 sky130_fd_pr__nfet_01v8 ad=0.2 pd=1.8 as=0.1 ps=0.9 w=0.5 l=0.2
X63 VOUT-.t28 two_stage_opamp_dummy_magic_16_0.cap_res_X.t129 sky130_fd_pr__cap_mim_m3_1 l=2 w=2
X64 two_stage_opamp_dummy_magic_16_0.V_CMFB_S2.t8 two_stage_opamp_dummy_magic_16_0.X.t26 VDDA.t133 GNDA.t78 sky130_fd_pr__nfet_01v8 ad=0.6 pd=3.4 as=0.6 ps=3.4 w=3 l=0.15
X65 GNDA.t285 GNDA.t284 two_stage_opamp_dummy_magic_16_0.Y.t14 GNDA.t196 sky130_fd_pr__nfet_01v8 ad=0.6 pd=3.8 as=0.3 ps=1.9 w=1.5 l=0.15
X66 VOUT+.t30 two_stage_opamp_dummy_magic_16_0.cap_res_Y.t127 sky130_fd_pr__cap_mim_m3_1 l=2 w=2
X67 bgr_0.1st_Vout_1.t14 bgr_0.cap_res1.t17 sky130_fd_pr__cap_mim_m3_1 l=2 w=2
X68 bgr_0.V_TOP.t19 VDDA.t188 sky130_fd_pr__cap_mim_m3_1 l=2 w=2
X69 bgr_0.V_mir2.t11 bgr_0.V_mir2.t10 VDDA.t45 VDDA.t44 sky130_fd_pr__pfet_01v8 ad=0.2 pd=1.4 as=0.2 ps=1.4 w=1 l=0.2
X70 two_stage_opamp_dummy_magic_16_0.V_CMFB_S3.t15 VDDA.t359 VDDA.t361 VDDA.t360 sky130_fd_pr__pfet_01v8 ad=0.2 pd=1.4 as=0.4 ps=2.8 w=1 l=0.15
X71 VOUT-.t29 two_stage_opamp_dummy_magic_16_0.cap_res_X.t128 sky130_fd_pr__cap_mim_m3_1 l=2 w=2
X72 VOUT-.t6 two_stage_opamp_dummy_magic_16_0.X.t27 VDDA.t135 VDDA.t134 sky130_fd_pr__pfet_01v8 ad=1.2 pd=6.4 as=1.2 ps=6.4 w=6 l=0.15
X73 VOUT+.t5 a_5980_2720.t0 GNDA.t130 sky130_fd_pr__res_xhigh_po_0p35 l=2.63
X74 two_stage_opamp_dummy_magic_16_0.V_CMFB_S3.t13 bgr_0.PFET_GATE_10uA.t12 VDDA.t216 VDDA.t215 sky130_fd_pr__pfet_01v8 ad=0.2 pd=1.4 as=0.2 ps=1.4 w=1 l=0.15
X75 two_stage_opamp_dummy_magic_16_0.Vb2_Vb3.t8 VDDA.t356 VDDA.t358 VDDA.t357 sky130_fd_pr__pfet_01v8 ad=0.7 pd=3.9 as=1.4 ps=7.8 w=3.5 l=0.2
X76 VDDA.t67 bgr_0.PFET_GATE_10uA.t13 two_stage_opamp_dummy_magic_16_0.V_CMFB_S3.t12 VDDA.t66 sky130_fd_pr__pfet_01v8 ad=0.2 pd=1.4 as=0.2 ps=1.4 w=1 l=0.15
X77 VOUT+.t31 two_stage_opamp_dummy_magic_16_0.cap_res_Y.t126 sky130_fd_pr__cap_mim_m3_1 l=2 w=2
X78 bgr_0.V_TOP.t20 VDDA.t189 sky130_fd_pr__cap_mim_m3_1 l=2 w=2
X79 bgr_0.1st_Vout_2.t10 bgr_0.V_CUR_REF_REG.t4 bgr_0.V_p_2.t8 GNDA.t292 sky130_fd_pr__nfet_01v8 ad=0.1 pd=0.9 as=0.1 ps=0.9 w=0.5 l=0.2
X80 two_stage_opamp_dummy_magic_16_0.VD4.t37 two_stage_opamp_dummy_magic_16_0.Vb2.t12 two_stage_opamp_dummy_magic_16_0.Y.t18 two_stage_opamp_dummy_magic_16_0.VD4.t36 sky130_fd_pr__pfet_01v8 ad=0.7 pd=3.9 as=0.7 ps=3.9 w=3.5 l=0.2
X81 VOUT+.t15 two_stage_opamp_dummy_magic_16_0.V_b_2nd_stage.t3 GNDA.t314 GNDA.t313 sky130_fd_pr__nfet_01v8 ad=1.4 pd=7.4 as=1.4 ps=7.4 w=7 l=0.6
X82 VDDA.t202 two_stage_opamp_dummy_magic_16_0.Y.t27 VOUT+.t7 VDDA.t201 sky130_fd_pr__pfet_01v8 ad=1.2 pd=6.4 as=1.2 ps=6.4 w=6 l=0.15
X83 VOUT-.t30 two_stage_opamp_dummy_magic_16_0.cap_res_X.t127 sky130_fd_pr__cap_mim_m3_1 l=2 w=2
X84 two_stage_opamp_dummy_magic_16_0.VD4.t9 two_stage_opamp_dummy_magic_16_0.Vb3.t10 VDDA.t259 VDDA.t258 sky130_fd_pr__pfet_01v8 ad=0.7 pd=3.9 as=0.7 ps=3.9 w=3.5 l=0.2
X85 VOUT-.t31 two_stage_opamp_dummy_magic_16_0.cap_res_X.t126 sky130_fd_pr__cap_mim_m3_1 l=2 w=2
X86 VOUT-.t32 two_stage_opamp_dummy_magic_16_0.cap_res_X.t125 sky130_fd_pr__cap_mim_m3_1 l=2 w=2
X87 two_stage_opamp_dummy_magic_16_0.V_err_mir_p.t2 two_stage_opamp_dummy_magic_16_0.V_err_amp_ref.t7 two_stage_opamp_dummy_magic_16_0.V_err_gate.t0 VDDA.t109 sky130_fd_pr__pfet_01v8 ad=0.5 pd=2.9 as=0.5 ps=2.9 w=2.5 l=0.15
X88 VOUT-.t16 a_14010_2720.t1 GNDA.t300 sky130_fd_pr__res_xhigh_po_0p35 l=2.63
X89 bgr_0.PFET_GATE_10uA.t6 bgr_0.1st_Vout_2.t13 VDDA.t111 VDDA.t110 sky130_fd_pr__pfet_01v8 ad=0.2 pd=1.4 as=0.2 ps=1.4 w=1 l=0.2
X90 VOUT-.t33 two_stage_opamp_dummy_magic_16_0.cap_res_X.t124 sky130_fd_pr__cap_mim_m3_1 l=2 w=2
X91 bgr_0.V_TOP.t21 VDDA.t21 sky130_fd_pr__cap_mim_m3_1 l=2 w=2
X92 two_stage_opamp_dummy_magic_16_0.V_CMFB_S1.t9 two_stage_opamp_dummy_magic_16_0.X.t28 GNDA.t76 VDDA.t130 sky130_fd_pr__pfet_01v8 ad=0.4 pd=2.4 as=0.4 ps=2.4 w=2 l=0.15
X93 GNDA.t283 GNDA.t281 two_stage_opamp_dummy_magic_16_0.V_source.t32 GNDA.t282 sky130_fd_pr__nfet_01v8 ad=1 pd=5.8 as=0.5 ps=2.9 w=2.5 l=0.15
X94 bgr_0.START_UP_NFET1.t0 bgr_0.START_UP_NFET1 GNDA.t93 GNDA.t92 sky130_fd_pr__nfet_01v8 ad=0.2 pd=1.4 as=0.4 ps=2.8 w=1 l=10
X95 VDDA.t355 VDDA.t353 GNDA.t40 VDDA.t354 sky130_fd_pr__pfet_01v8 ad=0.8 pd=4.8 as=0.4 ps=2.4 w=2 l=0.15
X96 two_stage_opamp_dummy_magic_16_0.Vb2_Vb3.t6 two_stage_opamp_dummy_magic_16_0.Vb2_Vb3.t4 two_stage_opamp_dummy_magic_16_0.Vb3.t1 two_stage_opamp_dummy_magic_16_0.Vb2_Vb3.t5 sky130_fd_pr__pfet_01v8 ad=1.4 pd=7.8 as=0.7 ps=3.9 w=3.5 l=0.2
X97 two_stage_opamp_dummy_magic_16_0.VD3.t9 two_stage_opamp_dummy_magic_16_0.Vb2.t13 two_stage_opamp_dummy_magic_16_0.X.t6 two_stage_opamp_dummy_magic_16_0.VD3.t8 sky130_fd_pr__pfet_01v8 ad=0.7 pd=3.9 as=0.7 ps=3.9 w=3.5 l=0.2
X98 VOUT+.t32 two_stage_opamp_dummy_magic_16_0.cap_res_Y.t125 sky130_fd_pr__cap_mim_m3_1 l=2 w=2
X99 two_stage_opamp_dummy_magic_16_0.V_source.t33 VIN+.t2 two_stage_opamp_dummy_magic_16_0.VD2.t17 GNDA.t45 sky130_fd_pr__nfet_01v8 ad=0.3 pd=1.9 as=0.3 ps=1.9 w=1.5 l=0.15
X100 two_stage_opamp_dummy_magic_16_0.V_CMFB_S4.t8 two_stage_opamp_dummy_magic_16_0.Y.t28 VDDA.t96 GNDA.t54 sky130_fd_pr__nfet_01v8 ad=0.6 pd=3.4 as=0.6 ps=3.4 w=3 l=0.15
X101 two_stage_opamp_dummy_magic_16_0.V_source.t28 VIN-.t0 two_stage_opamp_dummy_magic_16_0.VD1.t14 GNDA.t91 sky130_fd_pr__nfet_01v8 ad=0.3 pd=1.9 as=0.3 ps=1.9 w=1.5 l=0.15
X102 two_stage_opamp_dummy_magic_16_0.V_tail_gate.t9 GNDA.t279 GNDA.t280 GNDA.t87 sky130_fd_pr__nfet_01v8 ad=0.3 pd=1.9 as=0.6 ps=3.8 w=1.5 l=0.15
X103 VOUT+.t33 two_stage_opamp_dummy_magic_16_0.cap_res_Y.t124 sky130_fd_pr__cap_mim_m3_1 l=2 w=2
X104 bgr_0.V_TOP.t22 VDDA.t22 sky130_fd_pr__cap_mim_m3_1 l=2 w=2
X105 GNDA.t190 bgr_0.NFET_GATE_10uA.t7 two_stage_opamp_dummy_magic_16_0.V_CMFB_S2.t13 GNDA.t189 sky130_fd_pr__nfet_01v8 ad=0.2 pd=1.4 as=0.2 ps=1.4 w=1 l=0.15
X106 two_stage_opamp_dummy_magic_16_0.V_CMFB_S2.t12 bgr_0.NFET_GATE_10uA.t8 GNDA.t188 GNDA.t187 sky130_fd_pr__nfet_01v8 ad=0.2 pd=1.4 as=0.2 ps=1.4 w=1 l=0.15
X107 two_stage_opamp_dummy_magic_16_0.VD4.t35 two_stage_opamp_dummy_magic_16_0.Vb2.t14 two_stage_opamp_dummy_magic_16_0.Y.t23 two_stage_opamp_dummy_magic_16_0.VD4.t34 sky130_fd_pr__pfet_01v8 ad=0.7 pd=3.9 as=0.7 ps=3.9 w=3.5 l=0.2
X108 GNDA.t291 two_stage_opamp_dummy_magic_16_0.Y.t29 two_stage_opamp_dummy_magic_16_0.V_CMFB_S3.t8 VDDA.t377 sky130_fd_pr__pfet_01v8 ad=0.4 pd=2.4 as=0.4 ps=2.4 w=2 l=0.15
X109 VOUT-.t34 two_stage_opamp_dummy_magic_16_0.cap_res_X.t123 sky130_fd_pr__cap_mim_m3_1 l=2 w=2
X110 VOUT-.t35 two_stage_opamp_dummy_magic_16_0.cap_res_X.t122 sky130_fd_pr__cap_mim_m3_1 l=2 w=2
X111 VOUT-.t36 two_stage_opamp_dummy_magic_16_0.cap_res_X.t121 sky130_fd_pr__cap_mim_m3_1 l=2 w=2
X112 VOUT-.t37 two_stage_opamp_dummy_magic_16_0.cap_res_X.t120 sky130_fd_pr__cap_mim_m3_1 l=2 w=2
X113 bgr_0.1st_Vout_2.t14 bgr_0.cap_res2.t18 sky130_fd_pr__cap_mim_m3_1 l=2 w=2
X114 two_stage_opamp_dummy_magic_16_0.VD1.t10 two_stage_opamp_dummy_magic_16_0.Vb1.t17 two_stage_opamp_dummy_magic_16_0.X.t9 GNDA.t3 sky130_fd_pr__nfet_01v8 ad=0.3 pd=1.9 as=0.3 ps=1.9 w=1.5 l=0.15
X115 VOUT+.t34 two_stage_opamp_dummy_magic_16_0.cap_res_Y.t123 sky130_fd_pr__cap_mim_m3_1 l=2 w=2
X116 VOUT+.t35 two_stage_opamp_dummy_magic_16_0.cap_res_Y.t122 sky130_fd_pr__cap_mim_m3_1 l=2 w=2
X117 two_stage_opamp_dummy_magic_16_0.Vb1.t8 two_stage_opamp_dummy_magic_16_0.Vb1.t7 a_9610_2730.t4 GNDA.t14 sky130_fd_pr__nfet_01v8 ad=0.3 pd=1.9 as=0.3 ps=1.9 w=1.5 l=0.15
X118 VOUT+.t36 two_stage_opamp_dummy_magic_16_0.cap_res_Y.t121 sky130_fd_pr__cap_mim_m3_1 l=2 w=2
X119 VOUT+.t37 two_stage_opamp_dummy_magic_16_0.cap_res_Y.t120 sky130_fd_pr__cap_mim_m3_1 l=2 w=2
X120 VOUT+.t38 two_stage_opamp_dummy_magic_16_0.cap_res_Y.t119 sky130_fd_pr__cap_mim_m3_1 l=2 w=2
X121 a_12530_23988.t1 bgr_0.Vin-.t7 GNDA.t299 sky130_fd_pr__res_xhigh_po_0p35 l=6
X122 two_stage_opamp_dummy_magic_16_0.VD3.t25 two_stage_opamp_dummy_magic_16_0.Vb3.t11 VDDA.t257 VDDA.t256 sky130_fd_pr__pfet_01v8 ad=0.7 pd=3.9 as=0.7 ps=3.9 w=3.5 l=0.2
X123 two_stage_opamp_dummy_magic_16_0.VD2.t1 two_stage_opamp_dummy_magic_16_0.Vb1.t18 two_stage_opamp_dummy_magic_16_0.Y.t10 GNDA.t49 sky130_fd_pr__nfet_01v8 ad=0.3 pd=1.9 as=0.3 ps=1.9 w=1.5 l=0.15
X124 two_stage_opamp_dummy_magic_16_0.VD3.t3 two_stage_opamp_dummy_magic_16_0.Vb2.t15 two_stage_opamp_dummy_magic_16_0.X.t1 two_stage_opamp_dummy_magic_16_0.VD3.t2 sky130_fd_pr__pfet_01v8 ad=0.7 pd=3.9 as=0.7 ps=3.9 w=3.5 l=0.2
X125 VOUT-.t38 two_stage_opamp_dummy_magic_16_0.cap_res_X.t119 sky130_fd_pr__cap_mim_m3_1 l=2 w=2
X126 VOUT-.t39 two_stage_opamp_dummy_magic_16_0.cap_res_X.t118 sky130_fd_pr__cap_mim_m3_1 l=2 w=2
X127 bgr_0.1st_Vout_2.t7 bgr_0.V_mir2.t18 VDDA.t125 VDDA.t124 sky130_fd_pr__pfet_01v8 ad=0.2 pd=1.4 as=0.2 ps=1.4 w=1 l=0.2
X128 VOUT-.t5 two_stage_opamp_dummy_magic_16_0.X.t29 VDDA.t132 VDDA.t131 sky130_fd_pr__pfet_01v8 ad=1.2 pd=6.4 as=1.2 ps=6.4 w=6 l=0.15
X129 VOUT-.t40 two_stage_opamp_dummy_magic_16_0.cap_res_X.t117 sky130_fd_pr__cap_mim_m3_1 l=2 w=2
X130 VOUT-.t41 two_stage_opamp_dummy_magic_16_0.cap_res_X.t116 sky130_fd_pr__cap_mim_m3_1 l=2 w=2
X131 bgr_0.1st_Vout_2.t15 bgr_0.cap_res2.t17 sky130_fd_pr__cap_mim_m3_1 l=2 w=2
X132 VOUT-.t42 two_stage_opamp_dummy_magic_16_0.cap_res_X.t115 sky130_fd_pr__cap_mim_m3_1 l=2 w=2
X133 VOUT+.t39 two_stage_opamp_dummy_magic_16_0.cap_res_Y.t118 sky130_fd_pr__cap_mim_m3_1 l=2 w=2
X134 two_stage_opamp_dummy_magic_16_0.V_p_mir.t2 two_stage_opamp_dummy_magic_16_0.V_tail_gate.t13 GNDA.t112 GNDA.t111 sky130_fd_pr__nfet_01v8 ad=0.5 pd=2.9 as=0.5 ps=2.9 w=2.5 l=0.15
X135 two_stage_opamp_dummy_magic_16_0.V_source.t23 two_stage_opamp_dummy_magic_16_0.V_tail_gate.t14 GNDA.t116 GNDA.t115 sky130_fd_pr__nfet_01v8 ad=0.5 pd=2.9 as=0.5 ps=2.9 w=2.5 l=0.15
X136 VOUT-.t43 two_stage_opamp_dummy_magic_16_0.cap_res_X.t114 sky130_fd_pr__cap_mim_m3_1 l=2 w=2
X137 VOUT+.t40 two_stage_opamp_dummy_magic_16_0.cap_res_Y.t117 sky130_fd_pr__cap_mim_m3_1 l=2 w=2
X138 VOUT+.t41 two_stage_opamp_dummy_magic_16_0.cap_res_Y.t116 sky130_fd_pr__cap_mim_m3_1 l=2 w=2
X139 bgr_0.1st_Vout_1.t15 bgr_0.cap_res1.t16 sky130_fd_pr__cap_mim_m3_1 l=2 w=2
X140 VOUT+.t42 two_stage_opamp_dummy_magic_16_0.cap_res_Y.t115 sky130_fd_pr__cap_mim_m3_1 l=2 w=2
X141 bgr_0.V_mir1.t16 bgr_0.Vin-.t8 bgr_0.V_p_1.t10 GNDA.t310 sky130_fd_pr__nfet_01v8 ad=0.1 pd=0.9 as=0.1 ps=0.9 w=0.5 l=0.2
X142 bgr_0.V_mir1.t11 bgr_0.V_mir1.t10 VDDA.t25 VDDA.t24 sky130_fd_pr__pfet_01v8 ad=0.2 pd=1.4 as=0.2 ps=1.4 w=1 l=0.2
X143 two_stage_opamp_dummy_magic_16_0.VD3.t24 two_stage_opamp_dummy_magic_16_0.Vb3.t12 VDDA.t255 VDDA.t254 sky130_fd_pr__pfet_01v8 ad=0.7 pd=3.9 as=0.7 ps=3.9 w=3.5 l=0.2
X144 two_stage_opamp_dummy_magic_16_0.V_tail_gate.t2 VIN+.t3 two_stage_opamp_dummy_magic_16_0.V_p_mir.t3 GNDA.t31 sky130_fd_pr__nfet_01v8 ad=0.3 pd=1.9 as=0.3 ps=1.9 w=1.5 l=0.15
X145 two_stage_opamp_dummy_magic_16_0.V_source.t0 VIN-.t1 two_stage_opamp_dummy_magic_16_0.VD1.t0 GNDA.t0 sky130_fd_pr__nfet_01v8 ad=0.3 pd=1.9 as=0.3 ps=1.9 w=1.5 l=0.15
X146 GNDA.t125 a_7580_22380.t1 GNDA.t2 sky130_fd_pr__res_xhigh_po_0p35 l=6
X147 VOUT-.t44 two_stage_opamp_dummy_magic_16_0.cap_res_X.t113 sky130_fd_pr__cap_mim_m3_1 l=2 w=2
X148 VOUT-.t45 two_stage_opamp_dummy_magic_16_0.cap_res_X.t112 sky130_fd_pr__cap_mim_m3_1 l=2 w=2
X149 VOUT+.t43 two_stage_opamp_dummy_magic_16_0.cap_res_Y.t114 sky130_fd_pr__cap_mim_m3_1 l=2 w=2
X150 GNDA.t9 two_stage_opamp_dummy_magic_16_0.V_tail_gate.t15 two_stage_opamp_dummy_magic_16_0.V_source.t22 GNDA.t8 sky130_fd_pr__nfet_01v8 ad=0.5 pd=2.9 as=0.5 ps=2.9 w=2.5 l=0.15
X151 VOUT-.t46 two_stage_opamp_dummy_magic_16_0.cap_res_X.t111 sky130_fd_pr__cap_mim_m3_1 l=2 w=2
X152 VOUT-.t47 two_stage_opamp_dummy_magic_16_0.cap_res_X.t110 sky130_fd_pr__cap_mim_m3_1 l=2 w=2
X153 GNDA.t114 two_stage_opamp_dummy_magic_16_0.V_tail_gate.t16 two_stage_opamp_dummy_magic_16_0.V_source.t21 GNDA.t113 sky130_fd_pr__nfet_01v8 ad=0.5 pd=2.9 as=0.5 ps=2.9 w=2.5 l=0.15
X154 VDDA.t175 bgr_0.PFET_GATE_10uA.t14 two_stage_opamp_dummy_magic_16_0.Vb1.t9 VDDA.t174 sky130_fd_pr__pfet_01v8 ad=0.2 pd=1.4 as=0.2 ps=1.4 w=1 l=0.15
X155 two_stage_opamp_dummy_magic_16_0.V_CMFB_S1.t8 two_stage_opamp_dummy_magic_16_0.X.t30 GNDA.t34 VDDA.t75 sky130_fd_pr__pfet_01v8 ad=0.4 pd=2.4 as=0.4 ps=2.4 w=2 l=0.15
X156 VOUT-.t48 two_stage_opamp_dummy_magic_16_0.cap_res_X.t109 sky130_fd_pr__cap_mim_m3_1 l=2 w=2
X157 bgr_0.V_TOP.t23 VDDA.t23 sky130_fd_pr__cap_mim_m3_1 l=2 w=2
X158 two_stage_opamp_dummy_magic_16_0.V_source.t40 VIN-.t2 two_stage_opamp_dummy_magic_16_0.VD1.t21 GNDA.t306 sky130_fd_pr__nfet_01v8 ad=0.3 pd=1.9 as=0.3 ps=1.9 w=1.5 l=0.15
X159 VDDA.t352 VDDA.t350 two_stage_opamp_dummy_magic_16_0.V_CMFB_S1.t15 VDDA.t351 sky130_fd_pr__pfet_01v8 ad=0.4 pd=2.8 as=0.2 ps=1.4 w=1 l=0.15
X160 VOUT-.t49 two_stage_opamp_dummy_magic_16_0.cap_res_X.t108 sky130_fd_pr__cap_mim_m3_1 l=2 w=2
X161 VOUT-.t50 two_stage_opamp_dummy_magic_16_0.cap_res_X.t107 sky130_fd_pr__cap_mim_m3_1 l=2 w=2
X162 GNDA.t318 two_stage_opamp_dummy_magic_16_0.V_b_2nd_stage.t4 VOUT+.t16 GNDA.t317 sky130_fd_pr__nfet_01v8 ad=1.4 pd=7.4 as=1.4 ps=7.4 w=7 l=0.6
X163 two_stage_opamp_dummy_magic_16_0.V_CMFB_S1.t13 bgr_0.PFET_GATE_10uA.t15 VDDA.t173 VDDA.t172 sky130_fd_pr__pfet_01v8 ad=0.2 pd=1.4 as=0.2 ps=1.4 w=1 l=0.15
X164 a_5700_5524.t0 two_stage_opamp_dummy_magic_16_0.V_tot.t0 GNDA.t39 sky130_fd_pr__res_xhigh_po_0p35 l=1.75
X165 VOUT+.t44 two_stage_opamp_dummy_magic_16_0.cap_res_Y.t113 sky130_fd_pr__cap_mim_m3_1 l=2 w=2
X166 VOUT+.t45 two_stage_opamp_dummy_magic_16_0.cap_res_Y.t112 sky130_fd_pr__cap_mim_m3_1 l=2 w=2
X167 VDDA.t253 two_stage_opamp_dummy_magic_16_0.Vb3.t13 two_stage_opamp_dummy_magic_16_0.VD4.t8 VDDA.t252 sky130_fd_pr__pfet_01v8 ad=0.7 pd=3.9 as=0.7 ps=3.9 w=3.5 l=0.2
X168 VOUT+.t17 two_stage_opamp_dummy_magic_16_0.Y.t30 VDDA.t414 VDDA.t413 sky130_fd_pr__pfet_01v8 ad=1.2 pd=6.4 as=1.2 ps=6.4 w=6 l=0.15
X169 GNDA.t149 VDDA.t347 VDDA.t349 VDDA.t348 sky130_fd_pr__pfet_01v8 ad=0.4 pd=2.4 as=0.8 ps=4.8 w=2 l=0.15
X170 bgr_0.V_mir1.t13 bgr_0.Vin-.t9 bgr_0.V_p_1.t9 GNDA.t99 sky130_fd_pr__nfet_01v8 ad=0.1 pd=0.9 as=0.1 ps=0.9 w=0.5 l=0.2
X171 VOUT+.t46 two_stage_opamp_dummy_magic_16_0.cap_res_Y.t111 sky130_fd_pr__cap_mim_m3_1 l=2 w=2
X172 VOUT+.t47 two_stage_opamp_dummy_magic_16_0.cap_res_Y.t110 sky130_fd_pr__cap_mim_m3_1 l=2 w=2
X173 two_stage_opamp_dummy_magic_16_0.VD3.t7 two_stage_opamp_dummy_magic_16_0.Vb2.t16 two_stage_opamp_dummy_magic_16_0.X.t4 two_stage_opamp_dummy_magic_16_0.VD3.t6 sky130_fd_pr__pfet_01v8 ad=0.7 pd=3.9 as=0.7 ps=3.9 w=3.5 l=0.2
X174 two_stage_opamp_dummy_magic_16_0.V_err_gate.t5 two_stage_opamp_dummy_magic_16_0.V_tot.t4 two_stage_opamp_dummy_magic_16_0.V_err_mir_p.t3 VDDA.t386 sky130_fd_pr__pfet_01v8 ad=0.5 pd=2.9 as=0.5 ps=2.9 w=2.5 l=0.15
X175 GNDA.t278 GNDA.t276 two_stage_opamp_dummy_magic_16_0.err_amp_mir.t2 GNDA.t277 sky130_fd_pr__nfet_01v8 ad=1 pd=5.8 as=0.5 ps=2.9 w=2.5 l=0.15
X176 two_stage_opamp_dummy_magic_16_0.Vb1.t11 GNDA.t273 GNDA.t275 GNDA.t274 sky130_fd_pr__nfet_01v8 ad=0.3 pd=1.9 as=0.6 ps=3.8 w=1.5 l=0.15
X177 bgr_0.START_UP.t4 bgr_0.V_TOP.t24 VDDA.t205 VDDA.t204 sky130_fd_pr__pfet_01v8 ad=0.6 pd=3.4 as=0.6 ps=3.4 w=3 l=0.5
X178 VOUT-.t51 two_stage_opamp_dummy_magic_16_0.cap_res_X.t106 sky130_fd_pr__cap_mim_m3_1 l=2 w=2
X179 bgr_0.PFET_GATE_10uA.t5 bgr_0.1st_Vout_2.t16 VDDA.t20 VDDA.t19 sky130_fd_pr__pfet_01v8 ad=0.2 pd=1.4 as=0.2 ps=1.4 w=1 l=0.2
X180 VDDA.t185 bgr_0.V_mir1.t18 bgr_0.1st_Vout_1.t4 VDDA.t184 sky130_fd_pr__pfet_01v8 ad=0.2 pd=1.4 as=0.2 ps=1.4 w=1 l=0.2
X181 VOUT+.t48 two_stage_opamp_dummy_magic_16_0.cap_res_Y.t109 sky130_fd_pr__cap_mim_m3_1 l=2 w=2
X182 two_stage_opamp_dummy_magic_16_0.VD2.t8 two_stage_opamp_dummy_magic_16_0.Vb1.t19 two_stage_opamp_dummy_magic_16_0.Y.t9 GNDA.t45 sky130_fd_pr__nfet_01v8 ad=0.3 pd=1.9 as=0.3 ps=1.9 w=1.5 l=0.15
X183 VOUT+.t49 two_stage_opamp_dummy_magic_16_0.cap_res_Y.t108 sky130_fd_pr__cap_mim_m3_1 l=2 w=2
X184 VOUT-.t52 two_stage_opamp_dummy_magic_16_0.cap_res_X.t105 sky130_fd_pr__cap_mim_m3_1 l=2 w=2
X185 VOUT-.t53 two_stage_opamp_dummy_magic_16_0.cap_res_X.t104 sky130_fd_pr__cap_mim_m3_1 l=2 w=2
X186 two_stage_opamp_dummy_magic_16_0.VD2.t5 two_stage_opamp_dummy_magic_16_0.Vb1.t20 two_stage_opamp_dummy_magic_16_0.Y.t8 GNDA.t91 sky130_fd_pr__nfet_01v8 ad=0.3 pd=1.9 as=0.3 ps=1.9 w=1.5 l=0.15
X187 two_stage_opamp_dummy_magic_16_0.Vb2.t5 bgr_0.NFET_GATE_10uA.t9 GNDA.t172 GNDA.t171 sky130_fd_pr__nfet_01v8 ad=0.2 pd=1.4 as=0.2 ps=1.4 w=1 l=0.15
X188 VDDA.t251 two_stage_opamp_dummy_magic_16_0.Vb3.t14 two_stage_opamp_dummy_magic_16_0.Vb2_Vb3.t7 VDDA.t250 sky130_fd_pr__pfet_01v8 ad=0.7 pd=3.9 as=0.7 ps=3.9 w=3.5 l=0.2
X189 GNDA.t186 bgr_0.NFET_GATE_10uA.t10 two_stage_opamp_dummy_magic_16_0.Vb2.t4 GNDA.t185 sky130_fd_pr__nfet_01v8 ad=0.2 pd=1.4 as=0.2 ps=1.4 w=1 l=0.15
X190 VOUT+.t50 two_stage_opamp_dummy_magic_16_0.cap_res_Y.t107 sky130_fd_pr__cap_mim_m3_1 l=2 w=2
X191 bgr_0.V_TOP.t25 VDDA.t206 sky130_fd_pr__cap_mim_m3_1 l=2 w=2
X192 GNDA.t184 bgr_0.NFET_GATE_10uA.t11 two_stage_opamp_dummy_magic_16_0.Vb2.t3 GNDA.t183 sky130_fd_pr__nfet_01v8 ad=0.2 pd=1.4 as=0.2 ps=1.4 w=1 l=0.15
X193 two_stage_opamp_dummy_magic_16_0.Y.t17 two_stage_opamp_dummy_magic_16_0.Vb2.t17 two_stage_opamp_dummy_magic_16_0.VD4.t33 two_stage_opamp_dummy_magic_16_0.VD4.t32 sky130_fd_pr__pfet_01v8 ad=0.7 pd=3.9 as=0.7 ps=3.9 w=3.5 l=0.2
X194 VOUT+.t51 two_stage_opamp_dummy_magic_16_0.cap_res_Y.t106 sky130_fd_pr__cap_mim_m3_1 l=2 w=2
X195 VOUT-.t54 two_stage_opamp_dummy_magic_16_0.cap_res_X.t103 sky130_fd_pr__cap_mim_m3_1 l=2 w=2
X196 VOUT-.t3 two_stage_opamp_dummy_magic_16_0.X.t31 VDDA.t77 VDDA.t76 sky130_fd_pr__pfet_01v8 ad=1.2 pd=6.4 as=1.2 ps=6.4 w=6 l=0.15
X197 two_stage_opamp_dummy_magic_16_0.V_CMFB_S3.t7 two_stage_opamp_dummy_magic_16_0.Y.t31 GNDA.t302 VDDA.t399 sky130_fd_pr__pfet_01v8 ad=0.4 pd=2.4 as=0.4 ps=2.4 w=2 l=0.15
X198 VDDA.t249 two_stage_opamp_dummy_magic_16_0.Vb3.t15 two_stage_opamp_dummy_magic_16_0.VD4.t7 VDDA.t248 sky130_fd_pr__pfet_01v8 ad=0.7 pd=3.9 as=0.7 ps=3.9 w=3.5 l=0.2
X199 VOUT+.t52 two_stage_opamp_dummy_magic_16_0.cap_res_Y.t105 sky130_fd_pr__cap_mim_m3_1 l=2 w=2
X200 VOUT+.t53 two_stage_opamp_dummy_magic_16_0.cap_res_Y.t104 sky130_fd_pr__cap_mim_m3_1 l=2 w=2
X201 VOUT+.t54 two_stage_opamp_dummy_magic_16_0.cap_res_Y.t103 sky130_fd_pr__cap_mim_m3_1 l=2 w=2
X202 VOUT+.t55 two_stage_opamp_dummy_magic_16_0.cap_res_Y.t102 sky130_fd_pr__cap_mim_m3_1 l=2 w=2
X203 two_stage_opamp_dummy_magic_16_0.VD3.t23 two_stage_opamp_dummy_magic_16_0.Vb3.t16 VDDA.t247 VDDA.t246 sky130_fd_pr__pfet_01v8 ad=0.7 pd=3.9 as=0.7 ps=3.9 w=3.5 l=0.2
X204 VDDA.t208 bgr_0.V_TOP.t26 bgr_0.Vin+.t4 VDDA.t207 sky130_fd_pr__pfet_01v8 ad=0.6 pd=3.4 as=0.6 ps=3.4 w=3 l=0.5
X205 two_stage_opamp_dummy_magic_16_0.V_source.t20 two_stage_opamp_dummy_magic_16_0.V_tail_gate.t17 GNDA.t110 GNDA.t109 sky130_fd_pr__nfet_01v8 ad=0.5 pd=2.9 as=0.5 ps=2.9 w=2.5 l=0.15
X206 bgr_0.1st_Vout_2.t1 bgr_0.V_mir2.t19 VDDA.t9 VDDA.t8 sky130_fd_pr__pfet_01v8 ad=0.2 pd=1.4 as=0.2 ps=1.4 w=1 l=0.2
X207 VOUT-.t55 two_stage_opamp_dummy_magic_16_0.cap_res_X.t102 sky130_fd_pr__cap_mim_m3_1 l=2 w=2
X208 two_stage_opamp_dummy_magic_16_0.V_b_2nd_stage.t0 a_14010_2720.t0 GNDA.t127 sky130_fd_pr__res_xhigh_po_0p35 l=2.63
X209 bgr_0.V_TOP.t13 bgr_0.1st_Vout_1.t16 VDDA.t402 VDDA.t401 sky130_fd_pr__pfet_01v8 ad=0.2 pd=1.4 as=0.2 ps=1.4 w=1 l=0.2
X210 bgr_0.V_CUR_REF_REG.t2 VDDA.t344 VDDA.t346 VDDA.t345 sky130_fd_pr__pfet_01v8 ad=0.2 pd=1.4 as=0.4 ps=2.8 w=1 l=0.15
X211 VOUT-.t56 two_stage_opamp_dummy_magic_16_0.cap_res_X.t101 sky130_fd_pr__cap_mim_m3_1 l=2 w=2
X212 VOUT-.t57 two_stage_opamp_dummy_magic_16_0.cap_res_X.t100 sky130_fd_pr__cap_mim_m3_1 l=2 w=2
X213 VOUT-.t58 two_stage_opamp_dummy_magic_16_0.cap_res_X.t99 sky130_fd_pr__cap_mim_m3_1 l=2 w=2
X214 VOUT+.t56 two_stage_opamp_dummy_magic_16_0.cap_res_Y.t101 sky130_fd_pr__cap_mim_m3_1 l=2 w=2
X215 two_stage_opamp_dummy_magic_16_0.V_tail_gate.t6 bgr_0.PFET_GATE_10uA.t16 VDDA.t199 VDDA.t198 sky130_fd_pr__pfet_01v8 ad=0.2 pd=1.4 as=0.2 ps=1.4 w=1 l=0.15
X216 VOUT-.t59 two_stage_opamp_dummy_magic_16_0.cap_res_X.t98 sky130_fd_pr__cap_mim_m3_1 l=2 w=2
X217 two_stage_opamp_dummy_magic_16_0.V_source.t34 VIN+.t4 two_stage_opamp_dummy_magic_16_0.VD2.t16 GNDA.t294 sky130_fd_pr__nfet_01v8 ad=0.3 pd=1.9 as=0.3 ps=1.9 w=1.5 l=0.15
X218 VDDA.t73 two_stage_opamp_dummy_magic_16_0.X.t32 two_stage_opamp_dummy_magic_16_0.V_CMFB_S2.t7 GNDA.t32 sky130_fd_pr__nfet_01v8 ad=0.6 pd=3.4 as=0.6 ps=3.4 w=3 l=0.15
X219 two_stage_opamp_dummy_magic_16_0.X.t15 two_stage_opamp_dummy_magic_16_0.Vb2.t18 two_stage_opamp_dummy_magic_16_0.VD3.t15 two_stage_opamp_dummy_magic_16_0.VD3.t14 sky130_fd_pr__pfet_01v8 ad=0.7 pd=3.9 as=0.7 ps=3.9 w=3.5 l=0.2
X220 VOUT+.t57 two_stage_opamp_dummy_magic_16_0.cap_res_Y.t100 sky130_fd_pr__cap_mim_m3_1 l=2 w=2
X221 GNDA.t140 two_stage_opamp_dummy_magic_16_0.V_tail_gate.t18 two_stage_opamp_dummy_magic_16_0.V_source.t19 GNDA.t139 sky130_fd_pr__nfet_01v8 ad=0.5 pd=2.9 as=0.5 ps=2.9 w=2.5 l=0.15
X222 VOUT+.t58 two_stage_opamp_dummy_magic_16_0.cap_res_Y.t99 sky130_fd_pr__cap_mim_m3_1 l=2 w=2
X223 bgr_0.1st_Vout_2.t17 bgr_0.cap_res2.t16 sky130_fd_pr__cap_mim_m3_1 l=2 w=2
X224 a_6810_23838.t1 two_stage_opamp_dummy_magic_16_0.V_err_amp_ref.t6 GNDA.t50 sky130_fd_pr__res_xhigh_po_0p35 l=4.33
X225 two_stage_opamp_dummy_magic_16_0.V_CMFB_S1.t7 two_stage_opamp_dummy_magic_16_0.X.t33 GNDA.t33 VDDA.t74 sky130_fd_pr__pfet_01v8 ad=0.4 pd=2.4 as=0.4 ps=2.4 w=2 l=0.15
X226 two_stage_opamp_dummy_magic_16_0.Y.t19 two_stage_opamp_dummy_magic_16_0.Vb2.t19 two_stage_opamp_dummy_magic_16_0.VD4.t31 two_stage_opamp_dummy_magic_16_0.VD4.t30 sky130_fd_pr__pfet_01v8 ad=0.7 pd=3.9 as=0.7 ps=3.9 w=3.5 l=0.2
X227 two_stage_opamp_dummy_magic_16_0.V_CMFB_S4.t7 two_stage_opamp_dummy_magic_16_0.Y.t32 VDDA.t200 GNDA.t143 sky130_fd_pr__nfet_01v8 ad=0.6 pd=3.4 as=0.6 ps=3.4 w=3 l=0.15
X228 bgr_0.Vin+.t1 bgr_0.sky130_fd_pr__rf_pnp_05v5_W3p40L3p40_25.Emitter.t0 GNDA.t35 sky130_fd_pr__res_xhigh_po_0p35 l=2.3
X229 VDDA.t343 VDDA.t341 two_stage_opamp_dummy_magic_16_0.err_amp_out.t3 VDDA.t342 sky130_fd_pr__pfet_01v8 ad=1 pd=5.8 as=0.5 ps=2.9 w=2.5 l=0.15