* NGSPICE file created from bgr_opamp_dummy_magic_19.ext - technology: sky130A

.subckt sky130_fd_pr__rf_pnp_05v5_W3p40L3p40 Emitter Collector Base m=1
X0 Collector Base Emitter sky130_fd_pr__pnp_05v5_W3p40L3p40
**devattr s=462400,2720
.ends

.subckt bgr_11 ERR_AMP_REF V_CMFB_S3 VB1_CUR_BIAS TAIL_CUR_MIR_BIAS V_CMFB_S1 ERR_AMP_CUR_BIAS
+ VB3_CUR_BIAS V_CMFB_S4 V_CMFB_S2 VB2_CUR_BIAS a_35550_n8650# m1_35910_n9110# a_32560_n7778#
+ PFET_GATE_10uA w_32750_1390# a_33140_n2120# w_32720_30# w_32630_2310# sky130_fd_pr__rf_pnp_05v5_W3p40L3p40_8/Base
+ a_37640_n2700# w_37670_1170#
Xsky130_fd_pr__rf_pnp_05v5_W3p40L3p40_8 sky130_fd_pr__rf_pnp_05v5_W3p40L3p40_8/Emitter
+ sky130_fd_pr__rf_pnp_05v5_W3p40L3p40_8/Base sky130_fd_pr__rf_pnp_05v5_W3p40L3p40_8/Base
+ sky130_fd_pr__rf_pnp_05v5_W3p40L3p40
+ m=1
Xsky130_fd_pr__rf_pnp_05v5_W3p40L3p40_20 sky130_fd_pr__rf_pnp_05v5_W3p40L3p40_8/Emitter
+ sky130_fd_pr__rf_pnp_05v5_W3p40L3p40_8/Base sky130_fd_pr__rf_pnp_05v5_W3p40L3p40_8/Base
+ sky130_fd_pr__rf_pnp_05v5_W3p40L3p40
+ m=1
Xsky130_fd_pr__rf_pnp_05v5_W3p40L3p40_21 sky130_fd_pr__rf_pnp_05v5_W3p40L3p40_8/Emitter
+ sky130_fd_pr__rf_pnp_05v5_W3p40L3p40_8/Base sky130_fd_pr__rf_pnp_05v5_W3p40L3p40_8/Base
+ sky130_fd_pr__rf_pnp_05v5_W3p40L3p40
+ m=1
Xsky130_fd_pr__rf_pnp_05v5_W3p40L3p40_22 sky130_fd_pr__rf_pnp_05v5_W3p40L3p40_8/Emitter
+ sky130_fd_pr__rf_pnp_05v5_W3p40L3p40_8/Base sky130_fd_pr__rf_pnp_05v5_W3p40L3p40_8/Base
+ sky130_fd_pr__rf_pnp_05v5_W3p40L3p40
+ m=1
Xsky130_fd_pr__rf_pnp_05v5_W3p40L3p40_23 Vin- sky130_fd_pr__rf_pnp_05v5_W3p40L3p40_8/Base
+ sky130_fd_pr__rf_pnp_05v5_W3p40L3p40_8/Base sky130_fd_pr__rf_pnp_05v5_W3p40L3p40 m=1
Xsky130_fd_pr__rf_pnp_05v5_W3p40L3p40_24 sky130_fd_pr__rf_pnp_05v5_W3p40L3p40_8/Emitter
+ sky130_fd_pr__rf_pnp_05v5_W3p40L3p40_8/Base sky130_fd_pr__rf_pnp_05v5_W3p40L3p40_8/Base
+ sky130_fd_pr__rf_pnp_05v5_W3p40L3p40
+ m=1
Xsky130_fd_pr__rf_pnp_05v5_W3p40L3p40_25 sky130_fd_pr__rf_pnp_05v5_W3p40L3p40_8/Emitter
+ sky130_fd_pr__rf_pnp_05v5_W3p40L3p40_8/Base sky130_fd_pr__rf_pnp_05v5_W3p40L3p40_8/Base
+ sky130_fd_pr__rf_pnp_05v5_W3p40L3p40
+ m=1
Xsky130_fd_pr__rf_pnp_05v5_W3p40L3p40_18 sky130_fd_pr__rf_pnp_05v5_W3p40L3p40_8/Emitter
+ sky130_fd_pr__rf_pnp_05v5_W3p40L3p40_8/Base sky130_fd_pr__rf_pnp_05v5_W3p40L3p40_8/Base
+ sky130_fd_pr__rf_pnp_05v5_W3p40L3p40
+ m=1
Xsky130_fd_pr__rf_pnp_05v5_W3p40L3p40_19 sky130_fd_pr__rf_pnp_05v5_W3p40L3p40_8/Emitter
+ sky130_fd_pr__rf_pnp_05v5_W3p40L3p40_8/Base sky130_fd_pr__rf_pnp_05v5_W3p40L3p40_8/Base
+ sky130_fd_pr__rf_pnp_05v5_W3p40L3p40
+ m=1
X0 V_mir1 V_mir1 w_32720_30# w_32720_30# sky130_fd_pr__pfet_01v8 ad=0.2 pd=1.4 as=0.2 ps=1.4 w=1 l=0.2
X1 V_TOP a_33140_n2120# sky130_fd_pr__rf_pnp_05v5_W3p40L3p40_8/Base sky130_fd_pr__rf_pnp_05v5_W3p40L3p40_8/Base sky130_fd_pr__nfet_01v8 ad=1 pd=5.8 as=1.01 ps=6.15 w=2.5 l=5
X2 V_TOP m1_35910_n9110# sky130_fd_pr__cap_mim_m3_1 l=2 w=2
X3 a_38570_n6514# a_38690_n7778# sky130_fd_pr__rf_pnp_05v5_W3p40L3p40_8/Base sky130_fd_pr__res_xhigh_po_0p35 l=4.28
X4 w_37670_1170# PFET_GATE_10uA VB1_CUR_BIAS w_37670_1170# sky130_fd_pr__pfet_01v8 ad=0.4 pd=2.4 as=0.4 ps=2.4 w=2 l=0.15
X5 1st_Vout_1 cap_res1 sky130_fd_pr__cap_mim_m3_1 l=2 w=2
X6 w_32750_1390# V_TOP Vin+ w_32750_1390# sky130_fd_pr__pfet_01v8 ad=0.6 pd=3.4 as=0.6 ps=3.4 w=3 l=0.5
X7 sky130_fd_pr__rf_pnp_05v5_W3p40L3p40_8/Base NFET_GATE_10uA ERR_AMP_CUR_BIAS sky130_fd_pr__rf_pnp_05v5_W3p40L3p40_8/Base sky130_fd_pr__nfet_01v8 ad=0.2 pd=1.4 as=0.2 ps=1.4 w=1 l=0.15
X8 1st_Vout_2 cap_res2 sky130_fd_pr__cap_mim_m3_1 l=2 w=2
X9 1st_Vout_1 cap_res1 sky130_fd_pr__cap_mim_m3_1 l=2 w=2
X10 V_TOP m1_35910_n9110# sky130_fd_pr__cap_mim_m3_1 l=2 w=2
X11 1st_Vout_1 cap_res1 sky130_fd_pr__cap_mim_m3_1 l=2 w=2
X12 V_CMFB_S3 w_32630_2310# w_32630_2310# w_32630_2310# sky130_fd_pr__pfet_01v8 ad=0.2 pd=1.4 as=0.4 ps=2.8 w=1 l=0.15
X13 w_32630_2310# w_32630_2310# V_CMFB_S1 w_32630_2310# sky130_fd_pr__pfet_01v8 ad=0.4 pd=2.8 as=0.2 ps=1.4 w=1 l=0.15
X14 1st_Vout_1 cap_res1 sky130_fd_pr__cap_mim_m3_1 l=2 w=2
X15 w_32720_30# V_mir1 1st_Vout_1 w_32720_30# sky130_fd_pr__pfet_01v8 ad=0.2 pd=1.4 as=0.2 ps=1.4 w=1 l=0.2
X16 w_32630_2310# w_32630_2310# V_CUR_REF_REG w_32630_2310# sky130_fd_pr__pfet_01v8 ad=0.4 pd=2.8 as=0.2 ps=1.4 w=1 l=0.15
X17 Vin- V_TOP w_32750_1390# w_32750_1390# sky130_fd_pr__pfet_01v8 ad=0.6 pd=3.4 as=0.6 ps=3.4 w=3 l=0.5
X18 w_32720_30# a_36200_20# a_36200_20# w_32720_30# sky130_fd_pr__pfet_01v8 ad=0.2 pd=1.4 as=0.2 ps=1.4 w=1 l=0.2
X19 V_CUR_REF_REG a_32320_n7778# sky130_fd_pr__rf_pnp_05v5_W3p40L3p40_8/Base sky130_fd_pr__res_xhigh_po_0p35 l=4
X20 w_32720_30# a_36200_20# 1st_Vout_2 w_32720_30# sky130_fd_pr__pfet_01v8 ad=0.2 pd=1.4 as=0.2 ps=1.4 w=1 l=0.2
X21 1st_Vout_1 cap_res1 sky130_fd_pr__cap_mim_m3_1 l=2 w=2
X22 V_TOP START_UP Vin- w_32750_1390# sky130_fd_pr__pfet_01v8 ad=0.2 pd=1.4 as=0.2 ps=1.4 w=1 l=0.15
X23 ERR_AMP_REF V_TOP w_32750_1390# w_32750_1390# sky130_fd_pr__pfet_01v8 ad=0.6 pd=3.4 as=0.6 ps=3.4 w=3 l=0.5
X24 w_32720_30# 1st_Vout_2 PFET_GATE_10uA w_32720_30# sky130_fd_pr__pfet_01v8 ad=0.2 pd=1.4 as=0.2 ps=1.4 w=1 l=0.2
X25 w_32630_2310# PFET_GATE_10uA V_CMFB_S1 w_32630_2310# sky130_fd_pr__pfet_01v8 ad=0.2 pd=1.4 as=0.2 ps=1.4 w=1 l=0.15
X26 V_p_2 V_CUR_REF_REG 1st_Vout_2 sky130_fd_pr__rf_pnp_05v5_W3p40L3p40_8/Base sky130_fd_pr__nfet_01v8 ad=0.5 pd=2.9 as=1 ps=5.8 w=2.5 l=0.2
X27 START_UP_NFET1 START_UP START_UP sky130_fd_pr__rf_pnp_05v5_W3p40L3p40_8/Base sky130_fd_pr__nfet_01v8 ad=0.2 pd=1.4 as=0.4 ps=2.8 w=1 l=10
X28 V_TOP m1_35910_n9110# sky130_fd_pr__cap_mim_m3_1 l=2 w=2
X29 sky130_fd_pr__rf_pnp_05v5_W3p40L3p40_8/Base a_33140_n2120# V_p_1 sky130_fd_pr__rf_pnp_05v5_W3p40L3p40_8/Base sky130_fd_pr__nfet_01v8 ad=1.01 pd=6.15 as=1 ps=5.8 w=2.5 l=5
X30 Vin- V_TOP w_32750_1390# w_32750_1390# sky130_fd_pr__pfet_01v8 ad=0.6 pd=3.4 as=0.6 ps=3.4 w=3 l=0.5
X31 sky130_fd_pr__rf_pnp_05v5_W3p40L3p40_8/Base NFET_GATE_10uA V_CMFB_S4 sky130_fd_pr__rf_pnp_05v5_W3p40L3p40_8/Base sky130_fd_pr__nfet_01v8 ad=0.2 pd=1.4 as=0.2 ps=1.4 w=1 l=0.15
X32 sky130_fd_pr__rf_pnp_05v5_W3p40L3p40_8/Base NFET_GATE_10uA V_CMFB_S4 sky130_fd_pr__rf_pnp_05v5_W3p40L3p40_8/Base sky130_fd_pr__nfet_01v8 ad=0.2 pd=1.4 as=0.2 ps=1.4 w=1 l=0.15
X33 VB2_CUR_BIAS NFET_GATE_10uA sky130_fd_pr__rf_pnp_05v5_W3p40L3p40_8/Base sky130_fd_pr__rf_pnp_05v5_W3p40L3p40_8/Base sky130_fd_pr__nfet_01v8 ad=0.2 pd=1.4 as=0.2 ps=1.4 w=1 l=0.15
X34 1st_Vout_2 a_36200_20# w_32720_30# w_32720_30# sky130_fd_pr__pfet_01v8 ad=0.2 pd=1.4 as=0.2 ps=1.4 w=1 l=0.2
X35 TAIL_CUR_MIR_BIAS PFET_GATE_10uA w_32630_2310# w_32630_2310# sky130_fd_pr__pfet_01v8 ad=0.2 pd=1.4 as=0.2 ps=1.4 w=1 l=0.15
X36 w_32750_1390# V_TOP Vin- w_32750_1390# sky130_fd_pr__pfet_01v8 ad=0.6 pd=3.4 as=0.6 ps=3.4 w=3 l=0.5
X37 PFET_GATE_10uA 1st_Vout_2 w_32720_30# w_32720_30# sky130_fd_pr__pfet_01v8 ad=0.2 pd=1.4 as=0.2 ps=1.4 w=1 l=0.2
X38 a_36200_20# a_36200_20# w_32720_30# w_32720_30# sky130_fd_pr__pfet_01v8 ad=0.2 pd=1.4 as=0.2 ps=1.4 w=1 l=0.2
X39 V_TOP m1_35910_n9110# sky130_fd_pr__cap_mim_m3_1 l=2 w=2
X40 1st_Vout_1 cap_res1 sky130_fd_pr__cap_mim_m3_1 l=2 w=2
X41 sky130_fd_pr__rf_pnp_05v5_W3p40L3p40_8/Base sky130_fd_pr__rf_pnp_05v5_W3p40L3p40_8/Base sky130_fd_pr__rf_pnp_05v5_W3p40L3p40_8/Base sky130_fd_pr__rf_pnp_05v5_W3p40L3p40_8/Base sky130_fd_pr__nfet_01v8 ad=0.2 pd=1.4 as=69.692 ps=400.3 w=1 l=0.15
X42 w_32750_1390# V_TOP ERR_AMP_REF w_32750_1390# sky130_fd_pr__pfet_01v8 ad=0.6 pd=3.4 as=0.6 ps=3.4 w=3 l=0.5
X43 V_TOP m1_35910_n9110# sky130_fd_pr__cap_mim_m3_1 l=2 w=2
X44 sky130_fd_pr__rf_pnp_05v5_W3p40L3p40_8/Base NFET_GATE_10uA VB3_CUR_BIAS sky130_fd_pr__rf_pnp_05v5_W3p40L3p40_8/Base sky130_fd_pr__nfet_01v8 ad=0.2 pd=1.4 as=0.2 ps=1.4 w=1 l=0.15
X45 VB3_CUR_BIAS sky130_fd_pr__rf_pnp_05v5_W3p40L3p40_8/Base sky130_fd_pr__rf_pnp_05v5_W3p40L3p40_8/Base sky130_fd_pr__rf_pnp_05v5_W3p40L3p40_8/Base sky130_fd_pr__nfet_01v8 ad=0.2 pd=1.4 as=0.4 ps=2.8 w=1 l=0.15
X46 w_32630_2310# w_32630_2310# w_32630_2310# w_32630_2310# sky130_fd_pr__pfet_01v8 ad=0.4 pd=2.8 as=7.2 ps=50.4 w=1 l=0.15
X47 V_TOP m1_35910_n9110# sky130_fd_pr__cap_mim_m3_1 l=2 w=2
X48 1st_Vout_2 cap_res2 sky130_fd_pr__cap_mim_m3_1 l=2 w=2
X49 1st_Vout_2 cap_res2 sky130_fd_pr__cap_mim_m3_1 l=2 w=2
X50 w_32750_1390# V_TOP Vin- w_32750_1390# sky130_fd_pr__pfet_01v8 ad=0.6 pd=3.4 as=0.6 ps=3.4 w=3 l=0.5
X51 V_TOP m1_35910_n9110# sky130_fd_pr__cap_mim_m3_1 l=2 w=2
X52 TAIL_CUR_MIR_BIAS PFET_GATE_10uA w_32630_2310# w_32630_2310# sky130_fd_pr__pfet_01v8 ad=0.2 pd=1.4 as=0.2 ps=1.4 w=1 l=0.15
X53 w_32720_30# a_36200_20# 1st_Vout_2 w_32720_30# sky130_fd_pr__pfet_01v8 ad=0.2 pd=1.4 as=0.2 ps=1.4 w=1 l=0.2
X54 sky130_fd_pr__rf_pnp_05v5_W3p40L3p40_8/Base NFET_GATE_10uA VB2_CUR_BIAS sky130_fd_pr__rf_pnp_05v5_W3p40L3p40_8/Base sky130_fd_pr__nfet_01v8 ad=0.2 pd=1.4 as=0.2 ps=1.4 w=1 l=0.15
X55 V_CMFB_S2 NFET_GATE_10uA sky130_fd_pr__rf_pnp_05v5_W3p40L3p40_8/Base sky130_fd_pr__rf_pnp_05v5_W3p40L3p40_8/Base sky130_fd_pr__nfet_01v8 ad=0.2 pd=1.4 as=0.2 ps=1.4 w=1 l=0.15
X56 a_36200_20# ERR_AMP_REF V_p_2 sky130_fd_pr__rf_pnp_05v5_W3p40L3p40_8/Base sky130_fd_pr__nfet_01v8 ad=1 pd=5.8 as=0.5 ps=2.9 w=2.5 l=0.2
X57 1st_Vout_2 cap_res2 sky130_fd_pr__cap_mim_m3_1 l=2 w=2
X58 1st_Vout_1 cap_res1 sky130_fd_pr__cap_mim_m3_1 l=2 w=2
X59 w_32720_30# V_mir1 V_mir1 w_32720_30# sky130_fd_pr__pfet_01v8 ad=0.2 pd=1.4 as=0.2 ps=1.4 w=1 l=0.2
X60 w_32720_30# w_32720_30# PFET_GATE_10uA w_32720_30# sky130_fd_pr__pfet_01v8 ad=0.4 pd=2.8 as=0.2 ps=1.4 w=1 l=0.2
X61 w_32720_30# 1st_Vout_1 V_TOP w_32720_30# sky130_fd_pr__pfet_01v8 ad=0.2 pd=1.4 as=0.2 ps=1.4 w=1 l=0.2
X62 1st_Vout_1 cap_res1 sky130_fd_pr__cap_mim_m3_1 l=2 w=2
X63 w_32750_1390# w_32750_1390# ERR_AMP_REF w_32750_1390# sky130_fd_pr__pfet_01v8 ad=1.2 pd=6.8 as=0.6 ps=3.4 w=3 l=0.5
X64 w_32720_30# a_36200_20# a_36200_20# w_32720_30# sky130_fd_pr__pfet_01v8 ad=0.2 pd=1.4 as=0.2 ps=1.4 w=1 l=0.2
X65 1st_Vout_1 cap_res1 sky130_fd_pr__cap_mim_m3_1 l=2 w=2
X66 Vin+ a_38040_n7928# sky130_fd_pr__rf_pnp_05v5_W3p40L3p40_8/Base sky130_fd_pr__res_xhigh_po_0p35 l=6
X67 sky130_fd_pr__rf_pnp_05v5_W3p40L3p40_8/Base NFET_GATE_10uA NFET_GATE_10uA sky130_fd_pr__rf_pnp_05v5_W3p40L3p40_8/Base sky130_fd_pr__nfet_01v8 ad=0.2 pd=1.4 as=0.2 ps=1.4 w=1 l=0.15
X68 ERR_AMP_CUR_BIAS NFET_GATE_10uA sky130_fd_pr__rf_pnp_05v5_W3p40L3p40_8/Base sky130_fd_pr__rf_pnp_05v5_W3p40L3p40_8/Base sky130_fd_pr__nfet_01v8 ad=0.2 pd=1.4 as=0.2 ps=1.4 w=1 l=0.15
X69 1st_Vout_1 cap_res1 sky130_fd_pr__cap_mim_m3_1 l=2 w=2
X70 Vin+ V_TOP w_32750_1390# w_32750_1390# sky130_fd_pr__pfet_01v8 ad=0.6 pd=3.4 as=0.6 ps=3.4 w=3 l=0.5
X71 TAIL_CUR_MIR_BIAS PFET_GATE_10uA w_32630_2310# w_32630_2310# sky130_fd_pr__pfet_01v8 ad=0.2 pd=1.4 as=0.2 ps=1.4 w=1 l=0.15
X72 Vin+ sky130_fd_pr__rf_pnp_05v5_W3p40L3p40_8/Emitter sky130_fd_pr__rf_pnp_05v5_W3p40L3p40_8/Base sky130_fd_pr__res_xhigh_po_0p35 l=2.3
X73 NFET_GATE_10uA w_32630_2310# w_32630_2310# w_32630_2310# sky130_fd_pr__pfet_01v8 ad=0.2 pd=1.4 as=0.4 ps=2.8 w=1 l=0.15
X74 PFET_GATE_10uA 1st_Vout_2 w_32720_30# w_32720_30# sky130_fd_pr__pfet_01v8 ad=0.2 pd=1.4 as=0.2 ps=1.4 w=1 l=0.2
X75 1st_Vout_1 cap_res1 sky130_fd_pr__cap_mim_m3_1 l=2 w=2
X76 ERR_AMP_REF w_32750_1390# w_32750_1390# w_32750_1390# sky130_fd_pr__pfet_01v8 ad=0.6 pd=3.4 as=1.2 ps=6.8 w=3 l=0.5
X77 a_36200_20# a_36200_20# w_32720_30# w_32720_30# sky130_fd_pr__pfet_01v8 ad=0.2 pd=1.4 as=0.2 ps=1.4 w=1 l=0.2
X78 w_32630_2310# PFET_GATE_10uA V_CMFB_S1 w_32630_2310# sky130_fd_pr__pfet_01v8 ad=0.2 pd=1.4 as=0.2 ps=1.4 w=1 l=0.15
X79 START_UP V_TOP w_32750_1390# w_32750_1390# sky130_fd_pr__pfet_01v8 ad=0.6 pd=3.4 as=0.6 ps=3.4 w=3 l=0.5
X80 1st_Vout_2 cap_res2 sky130_fd_pr__cap_mim_m3_1 l=2 w=2
X81 1st_Vout_1 V_mir1 w_32720_30# w_32720_30# sky130_fd_pr__pfet_01v8 ad=0.2 pd=1.4 as=0.2 ps=1.4 w=1 l=0.2
X82 sky130_fd_pr__rf_pnp_05v5_W3p40L3p40_8/Base sky130_fd_pr__rf_pnp_05v5_W3p40L3p40_8/Base VB2_CUR_BIAS sky130_fd_pr__rf_pnp_05v5_W3p40L3p40_8/Base sky130_fd_pr__nfet_01v8 ad=0.4 pd=2.8 as=0.2 ps=1.4 w=1 l=0.15
X83 V_mir1 V_mir1 w_32720_30# w_32720_30# sky130_fd_pr__pfet_01v8 ad=0.2 pd=1.4 as=0.2 ps=1.4 w=1 l=0.2
X84 1st_Vout_2 cap_res2 sky130_fd_pr__cap_mim_m3_1 l=2 w=2
X85 1st_Vout_2 cap_res2 sky130_fd_pr__cap_mim_m3_1 l=2 w=2
X86 w_32630_2310# w_32630_2310# V_CMFB_S3 w_32630_2310# sky130_fd_pr__pfet_01v8 ad=0.4 pd=2.8 as=0.2 ps=1.4 w=1 l=0.15
X87 V_TOP 1st_Vout_1 w_32720_30# w_32720_30# sky130_fd_pr__pfet_01v8 ad=0.2 pd=1.4 as=0.2 ps=1.4 w=1 l=0.2
X88 1st_Vout_2 cap_res2 sky130_fd_pr__cap_mim_m3_1 l=2 w=2
X89 1st_Vout_2 cap_res2 sky130_fd_pr__cap_mim_m3_1 l=2 w=2
X90 TAIL_CUR_MIR_BIAS PFET_GATE_10uA w_32630_2310# w_32630_2310# sky130_fd_pr__pfet_01v8 ad=0.2 pd=1.4 as=0.2 ps=1.4 w=1 l=0.15
X91 w_32630_2310# w_32630_2310# w_32630_2310# w_32630_2310# sky130_fd_pr__pfet_01v8 ad=0.2 pd=1.4 as=0 ps=0 w=1 l=0.15
X92 1st_Vout_1 cap_res1 sky130_fd_pr__cap_mim_m3_1 l=2 w=2
X93 VB1_CUR_BIAS w_37670_1170# w_37670_1170# w_37670_1170# sky130_fd_pr__pfet_01v8 ad=0.4 pd=2.4 as=0.8 ps=4.8 w=2 l=0.15
X94 1st_Vout_2 cap_res2 sky130_fd_pr__cap_mim_m3_1 l=2 w=2
X95 w_37670_1170# w_37670_1170# w_37670_1170# w_37670_1170# sky130_fd_pr__pfet_01v8 ad=0.4 pd=2.4 as=2.4 ps=14.4 w=2 l=0.15
X96 1st_Vout_2 cap_res2 sky130_fd_pr__cap_mim_m3_1 l=2 w=2
X97 1st_Vout_1 cap_res1 sky130_fd_pr__cap_mim_m3_1 l=2 w=2
X98 w_32720_30# 1st_Vout_2 PFET_GATE_10uA w_32720_30# sky130_fd_pr__pfet_01v8 ad=0.2 pd=1.4 as=0.2 ps=1.4 w=1 l=0.2
X99 w_32720_30# w_32720_30# V_TOP w_32720_30# sky130_fd_pr__pfet_01v8 ad=0.4 pd=2.8 as=0.2 ps=1.4 w=1 l=0.2
X100 w_32720_30# a_36200_20# a_36200_20# w_32720_30# sky130_fd_pr__pfet_01v8 ad=0.2 pd=1.4 as=0.2 ps=1.4 w=1 l=0.2
X101 1st_Vout_1 cap_res1 sky130_fd_pr__cap_mim_m3_1 l=2 w=2
X102 V_TOP m1_35910_n9110# sky130_fd_pr__cap_mim_m3_1 l=2 w=2
X103 w_32750_1390# V_TOP ERR_AMP_REF w_32750_1390# sky130_fd_pr__pfet_01v8 ad=0.6 pd=3.4 as=0.6 ps=3.4 w=3 l=0.5
X104 w_32720_30# V_mir1 1st_Vout_1 w_32720_30# sky130_fd_pr__pfet_01v8 ad=0.2 pd=1.4 as=0.2 ps=1.4 w=1 l=0.2
X105 1st_Vout_1 cap_res1 sky130_fd_pr__cap_mim_m3_1 l=2 w=2
X106 Vin- a_32970_n7928# sky130_fd_pr__rf_pnp_05v5_W3p40L3p40_8/Base sky130_fd_pr__res_xhigh_po_0p35 l=6
X107 w_32750_1390# V_TOP START_UP w_32750_1390# sky130_fd_pr__pfet_01v8 ad=0.6 pd=3.4 as=0.6 ps=3.4 w=3 l=0.5
X108 sky130_fd_pr__rf_pnp_05v5_W3p40L3p40_8/Base START_UP_NFET1 START_UP_NFET1 sky130_fd_pr__rf_pnp_05v5_W3p40L3p40_8/Base sky130_fd_pr__nfet_01v8 ad=0.4 pd=2.8 as=0.2 ps=1.4 w=1 l=10
X109 1st_Vout_1 cap_res1 sky130_fd_pr__cap_mim_m3_1 l=2 w=2
X110 w_32630_2310# PFET_GATE_10uA V_CMFB_S3 w_32630_2310# sky130_fd_pr__pfet_01v8 ad=0.2 pd=1.4 as=0.2 ps=1.4 w=1 l=0.15
X111 w_32630_2310# PFET_GATE_10uA V_CMFB_S3 w_32630_2310# sky130_fd_pr__pfet_01v8 ad=0.2 pd=1.4 as=0.2 ps=1.4 w=1 l=0.15
X112 w_32720_30# V_mir1 V_mir1 w_32720_30# sky130_fd_pr__pfet_01v8 ad=0.2 pd=1.4 as=0.2 ps=1.4 w=1 l=0.2
X113 V_TOP m1_35910_n9110# sky130_fd_pr__cap_mim_m3_1 l=2 w=2
X114 V_CMFB_S4 sky130_fd_pr__rf_pnp_05v5_W3p40L3p40_8/Base sky130_fd_pr__rf_pnp_05v5_W3p40L3p40_8/Base sky130_fd_pr__rf_pnp_05v5_W3p40L3p40_8/Base sky130_fd_pr__nfet_01v8 ad=0.2 pd=1.4 as=0.4 ps=2.8 w=1 l=0.15
X115 V_CMFB_S4 NFET_GATE_10uA sky130_fd_pr__rf_pnp_05v5_W3p40L3p40_8/Base sky130_fd_pr__rf_pnp_05v5_W3p40L3p40_8/Base sky130_fd_pr__nfet_01v8 ad=0.2 pd=1.4 as=0.2 ps=1.4 w=1 l=0.15
X116 V_TOP m1_35910_n9110# sky130_fd_pr__cap_mim_m3_1 l=2 w=2
X117 a_32440_n6570# a_32320_n7778# sky130_fd_pr__rf_pnp_05v5_W3p40L3p40_8/Base sky130_fd_pr__res_xhigh_po_0p35 l=4
X118 1st_Vout_2 cap_res2 sky130_fd_pr__cap_mim_m3_1 l=2 w=2
X119 V_TOP m1_35910_n9110# sky130_fd_pr__cap_mim_m3_1 l=2 w=2
X120 a_38570_n6514# sky130_fd_pr__rf_pnp_05v5_W3p40L3p40_8/Base sky130_fd_pr__rf_pnp_05v5_W3p40L3p40_8/Base sky130_fd_pr__res_xhigh_po_0p35 l=4.28
X121 a_33090_n6320# a_32560_n7778# sky130_fd_pr__rf_pnp_05v5_W3p40L3p40_8/Base sky130_fd_pr__res_xhigh_po_0p35 l=6
X122 sky130_fd_pr__rf_pnp_05v5_W3p40L3p40_8/Base NFET_GATE_10uA VB3_CUR_BIAS sky130_fd_pr__rf_pnp_05v5_W3p40L3p40_8/Base sky130_fd_pr__nfet_01v8 ad=0.2 pd=1.4 as=0.2 ps=1.4 w=1 l=0.15
X123 VB3_CUR_BIAS NFET_GATE_10uA sky130_fd_pr__rf_pnp_05v5_W3p40L3p40_8/Base sky130_fd_pr__rf_pnp_05v5_W3p40L3p40_8/Base sky130_fd_pr__nfet_01v8 ad=0.2 pd=1.4 as=0.2 ps=1.4 w=1 l=0.15
X124 1st_Vout_1 V_mir1 w_32720_30# w_32720_30# sky130_fd_pr__pfet_01v8 ad=0.2 pd=1.4 as=0.2 ps=1.4 w=1 l=0.2
X125 w_32750_1390# w_32750_1390# V_TOP w_32750_1390# sky130_fd_pr__pfet_01v8 ad=0.45 pd=2.9 as=0.2 ps=1.4 w=1 l=0.15
X126 1st_Vout_2 a_36200_20# w_32720_30# w_32720_30# sky130_fd_pr__pfet_01v8 ad=0.2 pd=1.4 as=0.2 ps=1.4 w=1 l=0.2
X127 PFET_GATE_10uA 1st_Vout_2 w_32720_30# w_32720_30# sky130_fd_pr__pfet_01v8 ad=0.2 pd=1.4 as=0.2 ps=1.4 w=1 l=0.2
X128 V_TOP 1st_Vout_1 w_32720_30# w_32720_30# sky130_fd_pr__pfet_01v8 ad=0.2 pd=1.4 as=0.2 ps=1.4 w=1 l=0.2
X129 a_37920_n6320# sky130_fd_pr__rf_pnp_05v5_W3p40L3p40_8/Base sky130_fd_pr__rf_pnp_05v5_W3p40L3p40_8/Base sky130_fd_pr__res_xhigh_po_0p35 l=6
X130 V_p_1 Vin- V_mir1 sky130_fd_pr__rf_pnp_05v5_W3p40L3p40_8/Base sky130_fd_pr__nfet_01v8 ad=0.5 pd=2.9 as=1 ps=5.8 w=2.5 l=0.2
X131 ERR_AMP_REF V_TOP w_32750_1390# w_32750_1390# sky130_fd_pr__pfet_01v8 ad=0.6 pd=3.4 as=0.6 ps=3.4 w=3 l=0.5
X132 PFET_GATE_10uA cap_res2 sky130_fd_pr__rf_pnp_05v5_W3p40L3p40_8/Base sky130_fd_pr__res_high_po_0p35 l=2.05
X133 V_CUR_REF_REG PFET_GATE_10uA w_32630_2310# w_32630_2310# sky130_fd_pr__pfet_01v8 ad=0.2 pd=1.4 as=0.2 ps=1.4 w=1 l=0.15
X134 sky130_fd_pr__rf_pnp_05v5_W3p40L3p40_8/Base NFET_GATE_10uA VB2_CUR_BIAS sky130_fd_pr__rf_pnp_05v5_W3p40L3p40_8/Base sky130_fd_pr__nfet_01v8 ad=0.2 pd=1.4 as=0.2 ps=1.4 w=1 l=0.15
X135 VB2_CUR_BIAS NFET_GATE_10uA sky130_fd_pr__rf_pnp_05v5_W3p40L3p40_8/Base sky130_fd_pr__rf_pnp_05v5_W3p40L3p40_8/Base sky130_fd_pr__nfet_01v8 ad=0.2 pd=1.4 as=0.2 ps=1.4 w=1 l=0.15
X136 V_TOP cap_res1 sky130_fd_pr__rf_pnp_05v5_W3p40L3p40_8/Base sky130_fd_pr__res_high_po_0p35 l=2.05
X137 w_32630_2310# PFET_GATE_10uA TAIL_CUR_MIR_BIAS w_32630_2310# sky130_fd_pr__pfet_01v8 ad=0.2 pd=1.4 as=0.2 ps=1.4 w=1 l=0.15
X138 Vin+ V_TOP w_32750_1390# w_32750_1390# sky130_fd_pr__pfet_01v8 ad=0.6 pd=3.4 as=0.6 ps=3.4 w=3 l=0.5
X139 w_32720_30# 1st_Vout_2 PFET_GATE_10uA w_32720_30# sky130_fd_pr__pfet_01v8 ad=0.2 pd=1.4 as=0.2 ps=1.4 w=1 l=0.2
X140 Vin- START_UP V_TOP w_32750_1390# sky130_fd_pr__pfet_01v8 ad=0.2 pd=1.4 as=0.2 ps=1.4 w=1 l=0.15
X141 NFET_GATE_10uA sky130_fd_pr__rf_pnp_05v5_W3p40L3p40_8/Base sky130_fd_pr__rf_pnp_05v5_W3p40L3p40_8/Base sky130_fd_pr__rf_pnp_05v5_W3p40L3p40_8/Base sky130_fd_pr__nfet_01v8 ad=0.2 pd=1.4 as=0.4 ps=2.8 w=1 l=0.15
X142 V_CMFB_S1 w_32630_2310# w_32630_2310# w_32630_2310# sky130_fd_pr__pfet_01v8 ad=0.2 pd=1.4 as=0.4 ps=2.8 w=1 l=0.15
X143 w_32720_30# V_mir1 1st_Vout_1 w_32720_30# sky130_fd_pr__pfet_01v8 ad=0.2 pd=1.4 as=0.2 ps=1.4 w=1 l=0.2
X144 V_p_2 a_33140_n2120# sky130_fd_pr__rf_pnp_05v5_W3p40L3p40_8/Base sky130_fd_pr__rf_pnp_05v5_W3p40L3p40_8/Base sky130_fd_pr__nfet_01v8 ad=1 pd=5.8 as=1 ps=5.8 w=2.5 l=5
X145 sky130_fd_pr__rf_pnp_05v5_W3p40L3p40_8/Base sky130_fd_pr__rf_pnp_05v5_W3p40L3p40_8/Base sky130_fd_pr__rf_pnp_05v5_W3p40L3p40_8/Base sky130_fd_pr__rf_pnp_05v5_W3p40L3p40_8/Base sky130_fd_pr__nfet_01v8 ad=0.2 pd=1.4 as=0 ps=0 w=1 l=0.15
X146 w_32720_30# a_36200_20# 1st_Vout_2 w_32720_30# sky130_fd_pr__pfet_01v8 ad=0.2 pd=1.4 as=0.2 ps=1.4 w=1 l=0.2
X147 1st_Vout_2 cap_res2 sky130_fd_pr__cap_mim_m3_1 l=2 w=2
X148 w_32720_30# 1st_Vout_1 V_TOP w_32720_30# sky130_fd_pr__pfet_01v8 ad=0.2 pd=1.4 as=0.2 ps=1.4 w=1 l=0.2
X149 1st_Vout_2 cap_res2 sky130_fd_pr__cap_mim_m3_1 l=2 w=2
X150 1st_Vout_2 cap_res2 sky130_fd_pr__cap_mim_m3_1 l=2 w=2
X151 1st_Vout_2 cap_res2 sky130_fd_pr__cap_mim_m3_1 l=2 w=2
X152 w_32630_2310# PFET_GATE_10uA TAIL_CUR_MIR_BIAS w_32630_2310# sky130_fd_pr__pfet_01v8 ad=0.2 pd=1.4 as=0.2 ps=1.4 w=1 l=0.15
X153 1st_Vout_2 cap_res2 sky130_fd_pr__cap_mim_m3_1 l=2 w=2
X154 1st_Vout_1 cap_res1 sky130_fd_pr__cap_mim_m3_1 l=2 w=2
X155 VB2_CUR_BIAS NFET_GATE_10uA sky130_fd_pr__rf_pnp_05v5_W3p40L3p40_8/Base sky130_fd_pr__rf_pnp_05v5_W3p40L3p40_8/Base sky130_fd_pr__nfet_01v8 ad=0.2 pd=1.4 as=0.2 ps=1.4 w=1 l=0.15
X156 1st_Vout_2 a_36200_20# w_32720_30# w_32720_30# sky130_fd_pr__pfet_01v8 ad=0.2 pd=1.4 as=0.2 ps=1.4 w=1 l=0.2
X157 1st_Vout_1 cap_res1 sky130_fd_pr__cap_mim_m3_1 l=2 w=2
X158 ERR_AMP_REF a_38690_n7778# sky130_fd_pr__rf_pnp_05v5_W3p40L3p40_8/Base sky130_fd_pr__res_xhigh_po_0p35 l=4.28
X159 V_mir1 V_mir1 w_32720_30# w_32720_30# sky130_fd_pr__pfet_01v8 ad=0.2 pd=1.4 as=0.2 ps=1.4 w=1 l=0.2
X160 1st_Vout_1 Vin+ V_p_1 sky130_fd_pr__rf_pnp_05v5_W3p40L3p40_8/Base sky130_fd_pr__nfet_01v8 ad=1 pd=5.8 as=0.5 ps=2.9 w=2.5 l=0.2
X161 1st_Vout_2 cap_res2 sky130_fd_pr__cap_mim_m3_1 l=2 w=2
X162 PFET_GATE_10uA w_32720_30# w_32720_30# w_32720_30# sky130_fd_pr__pfet_01v8 ad=0.2 pd=1.4 as=0.4 ps=2.8 w=1 l=0.2
X163 1st_Vout_1 cap_res1 sky130_fd_pr__cap_mim_m3_1 l=2 w=2
X164 V_TOP m1_35910_n9110# sky130_fd_pr__cap_mim_m3_1 l=2 w=2
X165 V_TOP 1st_Vout_1 w_32720_30# w_32720_30# sky130_fd_pr__pfet_01v8 ad=0.2 pd=1.4 as=0.2 ps=1.4 w=1 l=0.2
X166 a_36200_20# a_36200_20# w_32720_30# w_32720_30# sky130_fd_pr__pfet_01v8 ad=0.2 pd=1.4 as=0.2 ps=1.4 w=1 l=0.2
X167 V_TOP m1_35910_n9110# sky130_fd_pr__cap_mim_m3_1 l=2 w=2
X168 1st_Vout_1 cap_res1 sky130_fd_pr__cap_mim_m3_1 l=2 w=2
X169 V_TOP m1_35910_n9110# sky130_fd_pr__cap_mim_m3_1 l=2 w=2
X170 w_32750_1390# V_TOP Vin+ w_32750_1390# sky130_fd_pr__pfet_01v8 ad=0.6 pd=3.4 as=0.6 ps=3.4 w=3 l=0.5
X171 V_TOP m1_35910_n9110# sky130_fd_pr__cap_mim_m3_1 l=2 w=2
X172 1st_Vout_2 cap_res2 sky130_fd_pr__cap_mim_m3_1 l=2 w=2
X173 a_33090_n6320# a_32970_n7928# sky130_fd_pr__rf_pnp_05v5_W3p40L3p40_8/Base sky130_fd_pr__res_xhigh_po_0p35 l=6
X174 w_32630_2310# PFET_GATE_10uA NFET_GATE_10uA w_32630_2310# sky130_fd_pr__pfet_01v8 ad=0.2 pd=1.4 as=0.2 ps=1.4 w=1 l=0.15
X175 w_32630_2310# PFET_GATE_10uA TAIL_CUR_MIR_BIAS w_32630_2310# sky130_fd_pr__pfet_01v8 ad=0.2 pd=1.4 as=0.2 ps=1.4 w=1 l=0.15
X176 V_TOP m1_35910_n9110# sky130_fd_pr__cap_mim_m3_1 l=2 w=2
X177 V_CMFB_S1 PFET_GATE_10uA w_32630_2310# w_32630_2310# sky130_fd_pr__pfet_01v8 ad=0.2 pd=1.4 as=0.2 ps=1.4 w=1 l=0.15
X178 sky130_fd_pr__rf_pnp_05v5_W3p40L3p40_8/Base NFET_GATE_10uA VB2_CUR_BIAS sky130_fd_pr__rf_pnp_05v5_W3p40L3p40_8/Base sky130_fd_pr__nfet_01v8 ad=0.2 pd=1.4 as=0.2 ps=1.4 w=1 l=0.15
X179 START_UP V_TOP w_32750_1390# w_32750_1390# sky130_fd_pr__pfet_01v8 ad=0.6 pd=3.4 as=0.6 ps=3.4 w=3 l=0.5
X180 w_32720_30# V_mir1 V_mir1 w_32720_30# sky130_fd_pr__pfet_01v8 ad=0.2 pd=1.4 as=0.2 ps=1.4 w=1 l=0.2
X181 V_TOP w_32750_1390# w_32750_1390# w_32750_1390# sky130_fd_pr__pfet_01v8 ad=0.2 pd=1.4 as=0.4 ps=2.8 w=1 l=0.15
X182 w_32720_30# 1st_Vout_1 V_TOP w_32720_30# sky130_fd_pr__pfet_01v8 ad=0.2 pd=1.4 as=0.2 ps=1.4 w=1 l=0.2
X183 V_TOP m1_35910_n9110# sky130_fd_pr__cap_mim_m3_1 l=2 w=2
X184 VB3_CUR_BIAS NFET_GATE_10uA sky130_fd_pr__rf_pnp_05v5_W3p40L3p40_8/Base sky130_fd_pr__rf_pnp_05v5_W3p40L3p40_8/Base sky130_fd_pr__nfet_01v8 ad=0.2 pd=1.4 as=0.2 ps=1.4 w=1 l=0.15
X185 sky130_fd_pr__rf_pnp_05v5_W3p40L3p40_8/Base NFET_GATE_10uA VB3_CUR_BIAS sky130_fd_pr__rf_pnp_05v5_W3p40L3p40_8/Base sky130_fd_pr__nfet_01v8 ad=0.2 pd=1.4 as=0.2 ps=1.4 w=1 l=0.15
X186 w_32630_2310# PFET_GATE_10uA TAIL_CUR_MIR_BIAS w_32630_2310# sky130_fd_pr__pfet_01v8 ad=0.2 pd=1.4 as=0.2 ps=1.4 w=1 l=0.15
X187 a_37920_n6320# a_38040_n7928# sky130_fd_pr__rf_pnp_05v5_W3p40L3p40_8/Base sky130_fd_pr__res_xhigh_po_0p35 l=6
X188 V_CMFB_S1 PFET_GATE_10uA w_32630_2310# w_32630_2310# sky130_fd_pr__pfet_01v8 ad=0.2 pd=1.4 as=0.2 ps=1.4 w=1 l=0.15
X189 V_TOP m1_35910_n9110# sky130_fd_pr__cap_mim_m3_1 l=2 w=2
X190 V_TOP w_32720_30# w_32720_30# w_32720_30# sky130_fd_pr__pfet_01v8 ad=0.2 pd=1.4 as=0.4 ps=2.8 w=1 l=0.2
X191 a_32440_n6570# a_32560_n7778# sky130_fd_pr__rf_pnp_05v5_W3p40L3p40_8/Base sky130_fd_pr__res_xhigh_po_0p35 l=4
X192 V_CMFB_S2 NFET_GATE_10uA sky130_fd_pr__rf_pnp_05v5_W3p40L3p40_8/Base sky130_fd_pr__rf_pnp_05v5_W3p40L3p40_8/Base sky130_fd_pr__nfet_01v8 ad=0.2 pd=1.4 as=0.2 ps=1.4 w=1 l=0.15
X193 VB2_CUR_BIAS sky130_fd_pr__rf_pnp_05v5_W3p40L3p40_8/Base sky130_fd_pr__rf_pnp_05v5_W3p40L3p40_8/Base sky130_fd_pr__rf_pnp_05v5_W3p40L3p40_8/Base sky130_fd_pr__nfet_01v8 ad=0.2 pd=1.4 as=0.4 ps=2.8 w=1 l=0.15
X194 V_TOP m1_35910_n9110# sky130_fd_pr__cap_mim_m3_1 l=2 w=2
X195 sky130_fd_pr__rf_pnp_05v5_W3p40L3p40_8/Base sky130_fd_pr__rf_pnp_05v5_W3p40L3p40_8/Base V_CMFB_S2 sky130_fd_pr__rf_pnp_05v5_W3p40L3p40_8/Base sky130_fd_pr__nfet_01v8 ad=0.4 pd=2.8 as=0.2 ps=1.4 w=1 l=0.15
X196 sky130_fd_pr__rf_pnp_05v5_W3p40L3p40_8/Base NFET_GATE_10uA V_CMFB_S2 sky130_fd_pr__rf_pnp_05v5_W3p40L3p40_8/Base sky130_fd_pr__nfet_01v8 ad=0.2 pd=1.4 as=0.2 ps=1.4 w=1 l=0.15
X197 V_CMFB_S3 PFET_GATE_10uA w_32630_2310# w_32630_2310# sky130_fd_pr__pfet_01v8 ad=0.2 pd=1.4 as=0.2 ps=1.4 w=1 l=0.15
X198 1st_Vout_1 V_mir1 w_32720_30# w_32720_30# sky130_fd_pr__pfet_01v8 ad=0.2 pd=1.4 as=0.2 ps=1.4 w=1 l=0.2
X199 sky130_fd_pr__rf_pnp_05v5_W3p40L3p40_8/Base a_33140_n2120# PFET_GATE_10uA sky130_fd_pr__rf_pnp_05v5_W3p40L3p40_8/Base sky130_fd_pr__nfet_01v8 ad=1 pd=5.8 as=1 ps=5.8 w=2.5 l=5
X200 V_CMFB_S3 PFET_GATE_10uA w_32630_2310# w_32630_2310# sky130_fd_pr__pfet_01v8 ad=0.2 pd=1.4 as=0.2 ps=1.4 w=1 l=0.15
X201 w_32750_1390# V_TOP START_UP w_32750_1390# sky130_fd_pr__pfet_01v8 ad=0.6 pd=3.4 as=0.6 ps=3.4 w=3 l=0.5
X202 V_TOP m1_35910_n9110# sky130_fd_pr__cap_mim_m3_1 l=2 w=2
X203 1st_Vout_2 cap_res2 sky130_fd_pr__cap_mim_m3_1 l=2 w=2
.ends

.subckt two_stage_opamp_dummy_magic_29 V_CMFB_S1 V_CMFB_S3 Vb3 Vb2 V_CMFB_S2 V_CMFB_S4
+ VOUT- VOUT+ V_tail_gate V_err_amp_ref V_err_gate Vb1 VIN- VIN+ w_109120_3940# a_112340_650#
+ a_109160_2900#
X0 V_source V_tail_gate a_109160_2900# a_109160_2900# sky130_fd_pr__nfet_01v8 ad=0.5 pd=2.9 as=0.5 ps=2.9 w=2.5 l=0.15
X1 VOUT+ cap_res_Y sky130_fd_pr__cap_mim_m3_1 l=2 w=2
X2 w_109120_3940# Y VOUT+ w_109120_3940# sky130_fd_pr__pfet_01v8 ad=1.2 pd=6.4 as=1.2 ps=6.4 w=6 l=0.15
X3 VOUT- cap_res_X sky130_fd_pr__cap_mim_m3_1 l=2 w=2
X4 VOUT- cap_res_X sky130_fd_pr__cap_mim_m3_1 l=2 w=2
X5 VOUT- cap_res_X sky130_fd_pr__cap_mim_m3_1 l=2 w=2
X6 VOUT+ cap_res_Y sky130_fd_pr__cap_mim_m3_1 l=2 w=2
X7 VOUT+ V_b_2nd_stage a_109160_2900# a_109160_2900# sky130_fd_pr__nfet_01v8 ad=1.4 pd=7.4 as=1.4 ps=7.4 w=7 l=0.6
X8 w_109120_3940# Y V_CMFB_S4 a_109160_2900# sky130_fd_pr__nfet_01v8 ad=0.6 pd=3.4 as=0.6 ps=3.4 w=3 l=0.15
X9 VOUT+ cap_res_Y sky130_fd_pr__cap_mim_m3_1 l=2 w=2
X10 VOUT- cap_res_X sky130_fd_pr__cap_mim_m3_1 l=2 w=2
X11 Y Vb2 VD4 VD4 sky130_fd_pr__pfet_01v8 ad=0.7 pd=3.9 as=0.7 ps=3.9 w=3.5 l=0.2
X12 a_108050_3708# V_tot a_109160_2900# sky130_fd_pr__res_xhigh_po_0p35 l=1.75
X13 VOUT- cap_res_X sky130_fd_pr__cap_mim_m3_1 l=2 w=2
X14 VOUT+ cap_res_Y sky130_fd_pr__cap_mim_m3_1 l=2 w=2
X15 VOUT+ cap_res_Y sky130_fd_pr__cap_mim_m3_1 l=2 w=2
X16 VOUT+ cap_res_Y sky130_fd_pr__cap_mim_m3_1 l=2 w=2
X17 VOUT+ cap_res_Y sky130_fd_pr__cap_mim_m3_1 l=2 w=2
X18 VOUT+ cap_res_Y sky130_fd_pr__cap_mim_m3_1 l=2 w=2
X19 w_109120_3940# Y VOUT+ w_109120_3940# sky130_fd_pr__pfet_01v8 ad=1.2 pd=6.4 as=1.2 ps=6.4 w=6 l=0.15
X20 a_119360_3708# V_tot a_109160_2900# sky130_fd_pr__res_xhigh_po_0p35 l=1.75
X21 a_109160_2900# V_tail_gate V_p_mir a_109160_2900# sky130_fd_pr__nfet_01v8 ad=0.5 pd=2.9 as=0.5 ps=2.9 w=2.5 l=0.15
X22 VOUT- cap_res_X sky130_fd_pr__cap_mim_m3_1 l=2 w=2
X23 VOUT- cap_res_X sky130_fd_pr__cap_mim_m3_1 l=2 w=2
X24 V_b_2nd_stage a_118760_n94# a_109160_2900# sky130_fd_pr__res_xhigh_po_0p35 l=2.63
X25 VD3 w_109120_3940# w_109120_3940# w_109120_3940# sky130_fd_pr__pfet_01v8 ad=0.7 pd=3.9 as=1.4 ps=7.8 w=3.5 l=0.2
X26 VOUT+ cap_res_Y sky130_fd_pr__cap_mim_m3_1 l=2 w=2
X27 VOUT- cap_res_X sky130_fd_pr__cap_mim_m3_1 l=2 w=2
X28 a_109160_2900# Y V_CMFB_S3 w_109120_3940# sky130_fd_pr__pfet_01v8 ad=0.4 pd=2.4 as=0.4 ps=2.4 w=2 l=0.15
X29 VOUT- cap_res_X sky130_fd_pr__cap_mim_m3_1 l=2 w=2
X30 VOUT+ cap_res_Y sky130_fd_pr__cap_mim_m3_1 l=2 w=2
X31 VOUT- cap_res_X sky130_fd_pr__cap_mim_m3_1 l=2 w=2
X32 VOUT+ cap_res_Y sky130_fd_pr__cap_mim_m3_1 l=2 w=2
X33 VOUT- cap_res_X sky130_fd_pr__cap_mim_m3_1 l=2 w=2
X34 VD1 Vb1 X a_109160_2900# sky130_fd_pr__nfet_01v8 ad=0.3 pd=1.9 as=0.3 ps=1.9 w=1.5 l=0.15
X35 VOUT+ cap_res_Y sky130_fd_pr__cap_mim_m3_1 l=2 w=2
X36 VOUT+ cap_res_Y sky130_fd_pr__cap_mim_m3_1 l=2 w=2
X37 VOUT- cap_res_X sky130_fd_pr__cap_mim_m3_1 l=2 w=2
X38 VOUT+ cap_res_Y sky130_fd_pr__cap_mim_m3_1 l=2 w=2
X39 VD2 VIN+ V_source a_109160_2900# sky130_fd_pr__nfet_01v8 ad=0.3 pd=1.9 as=0.3 ps=1.9 w=1.5 l=0.15
X40 w_109120_3940# X VOUT- w_109120_3940# sky130_fd_pr__pfet_01v8 ad=1.2 pd=6.4 as=1.2 ps=6.4 w=6 l=0.15
X41 V_CMFB_S1 X a_109160_2900# w_109120_3940# sky130_fd_pr__pfet_01v8 ad=0.4 pd=2.4 as=0.4 ps=2.4 w=2 l=0.15
X42 VD1 VIN- V_source a_109160_2900# sky130_fd_pr__nfet_01v8 ad=0.3 pd=1.9 as=0.3 ps=1.9 w=1.5 l=0.15
X43 VOUT- cap_res_X sky130_fd_pr__cap_mim_m3_1 l=2 w=2
X44 VD1 VIN- V_source a_109160_2900# sky130_fd_pr__nfet_01v8 ad=0.3 pd=1.9 as=0.3 ps=1.9 w=1.5 l=0.15
X45 VOUT- cap_res_X sky130_fd_pr__cap_mim_m3_1 l=2 w=2
X46 VD3 Vb3 w_109120_3940# w_109120_3940# sky130_fd_pr__pfet_01v8 ad=0.7 pd=3.9 as=0.7 ps=3.9 w=3.5 l=0.2
X47 VD4 Vb3 w_109120_3940# w_109120_3940# sky130_fd_pr__pfet_01v8 ad=0.7 pd=3.9 as=0.7 ps=3.9 w=3.5 l=0.2
X48 VOUT- cap_res_X sky130_fd_pr__cap_mim_m3_1 l=2 w=2
X49 VOUT- cap_res_X sky130_fd_pr__cap_mim_m3_1 l=2 w=2
X50 Y Vb1 VD2 a_109160_2900# sky130_fd_pr__nfet_01v8 ad=0.3 pd=1.9 as=0.3 ps=1.9 w=1.5 l=0.15
X51 VOUT+ cap_res_Y sky130_fd_pr__cap_mim_m3_1 l=2 w=2
X52 w_109120_3940# Y V_CMFB_S4 a_109160_2900# sky130_fd_pr__nfet_01v8 ad=0.6 pd=3.4 as=0.6 ps=3.4 w=3 l=0.15
X53 VOUT+ cap_res_Y sky130_fd_pr__cap_mim_m3_1 l=2 w=2
X54 VOUT+ cap_res_Y sky130_fd_pr__cap_mim_m3_1 l=2 w=2
X55 VOUT+ cap_res_Y sky130_fd_pr__cap_mim_m3_1 l=2 w=2
X56 VD4 VD4 Y VD4 sky130_fd_pr__pfet_01v8 ad=1.4 pd=7.8 as=0.7 ps=3.9 w=3.5 l=0.2
X57 VOUT+ cap_res_Y sky130_fd_pr__cap_mim_m3_1 l=2 w=2
X58 VOUT+ cap_res_Y sky130_fd_pr__cap_mim_m3_1 l=2 w=2
X59 V_source VIN+ VD2 a_109160_2900# sky130_fd_pr__nfet_01v8 ad=0.3 pd=1.9 as=0.3 ps=1.9 w=1.5 l=0.15