* NGSPICE file created from bgr_opamp_dummy_magic_17.ext - technology: sky130A

.subckt sky130_fd_pr__rf_pnp_05v5_W3p40L3p40 Emitter Collector Base m=1
X0 Collector Base Emitter sky130_fd_pr__pnp_05v5_W3p40L3p40
**devattr s=462400,2720
.ends

.subckt bgr_11 ERR_AMP_REF V_CMFB_S3 VB1_CUR_BIAS TAIL_CUR_MIR_BIAS V_CMFB_S1 ERR_AMP_CUR_BIAS
+ VB3_CUR_BIAS V_CMFB_S4 V_CMFB_S2 VB2_CUR_BIAS 1st_Vout_1 w_32750_1490# a_32560_n7778#
+ w_32720_10# a_33140_n1920# a_37640_n2500# cap_res2 cap_res1 w_37690_1490# sky130_fd_pr__rf_pnp_05v5_W3p40L3p40_8/Base
+ V_TOP m1_35910_n8890# a_35550_n8610# w_32630_2620#
Xsky130_fd_pr__rf_pnp_05v5_W3p40L3p40_8 sky130_fd_pr__rf_pnp_05v5_W3p40L3p40_8/Emitter
+ sky130_fd_pr__rf_pnp_05v5_W3p40L3p40_8/Base sky130_fd_pr__rf_pnp_05v5_W3p40L3p40_8/Base
+ sky130_fd_pr__rf_pnp_05v5_W3p40L3p40
+ m=1
Xsky130_fd_pr__rf_pnp_05v5_W3p40L3p40_20 sky130_fd_pr__rf_pnp_05v5_W3p40L3p40_8/Emitter
+ sky130_fd_pr__rf_pnp_05v5_W3p40L3p40_8/Base sky130_fd_pr__rf_pnp_05v5_W3p40L3p40_8/Base
+ sky130_fd_pr__rf_pnp_05v5_W3p40L3p40
+ m=1
Xsky130_fd_pr__rf_pnp_05v5_W3p40L3p40_21 sky130_fd_pr__rf_pnp_05v5_W3p40L3p40_8/Emitter
+ sky130_fd_pr__rf_pnp_05v5_W3p40L3p40_8/Base sky130_fd_pr__rf_pnp_05v5_W3p40L3p40_8/Base
+ sky130_fd_pr__rf_pnp_05v5_W3p40L3p40
+ m=1
Xsky130_fd_pr__rf_pnp_05v5_W3p40L3p40_22 sky130_fd_pr__rf_pnp_05v5_W3p40L3p40_8/Emitter
+ sky130_fd_pr__rf_pnp_05v5_W3p40L3p40_8/Base sky130_fd_pr__rf_pnp_05v5_W3p40L3p40_8/Base
+ sky130_fd_pr__rf_pnp_05v5_W3p40L3p40
+ m=1
Xsky130_fd_pr__rf_pnp_05v5_W3p40L3p40_23 Vin- sky130_fd_pr__rf_pnp_05v5_W3p40L3p40_8/Base
+ sky130_fd_pr__rf_pnp_05v5_W3p40L3p40_8/Base sky130_fd_pr__rf_pnp_05v5_W3p40L3p40 m=1
Xsky130_fd_pr__rf_pnp_05v5_W3p40L3p40_24 sky130_fd_pr__rf_pnp_05v5_W3p40L3p40_8/Emitter
+ sky130_fd_pr__rf_pnp_05v5_W3p40L3p40_8/Base sky130_fd_pr__rf_pnp_05v5_W3p40L3p40_8/Base
+ sky130_fd_pr__rf_pnp_05v5_W3p40L3p40
+ m=1
Xsky130_fd_pr__rf_pnp_05v5_W3p40L3p40_25 sky130_fd_pr__rf_pnp_05v5_W3p40L3p40_8/Emitter
+ sky130_fd_pr__rf_pnp_05v5_W3p40L3p40_8/Base sky130_fd_pr__rf_pnp_05v5_W3p40L3p40_8/Base
+ sky130_fd_pr__rf_pnp_05v5_W3p40L3p40
+ m=1
Xsky130_fd_pr__rf_pnp_05v5_W3p40L3p40_18 sky130_fd_pr__rf_pnp_05v5_W3p40L3p40_8/Emitter
+ sky130_fd_pr__rf_pnp_05v5_W3p40L3p40_8/Base sky130_fd_pr__rf_pnp_05v5_W3p40L3p40_8/Base
+ sky130_fd_pr__rf_pnp_05v5_W3p40L3p40
+ m=1
Xsky130_fd_pr__rf_pnp_05v5_W3p40L3p40_19 sky130_fd_pr__rf_pnp_05v5_W3p40L3p40_8/Emitter
+ sky130_fd_pr__rf_pnp_05v5_W3p40L3p40_8/Base sky130_fd_pr__rf_pnp_05v5_W3p40L3p40_8/Base
+ sky130_fd_pr__rf_pnp_05v5_W3p40L3p40
+ m=1
X0 1st_Vout_2 cap_res2 sky130_fd_pr__cap_mim_m3_1 l=2 w=2
X1 VB3_CUR_BIAS NFET_GATE_10uA sky130_fd_pr__rf_pnp_05v5_W3p40L3p40_8/Base sky130_fd_pr__rf_pnp_05v5_W3p40L3p40_8/Base sky130_fd_pr__nfet_01v8 ad=0.2 pd=1.4 as=0.2 ps=1.4 w=1 l=0.15
X2 sky130_fd_pr__rf_pnp_05v5_W3p40L3p40_8/Base NFET_GATE_10uA VB3_CUR_BIAS sky130_fd_pr__rf_pnp_05v5_W3p40L3p40_8/Base sky130_fd_pr__nfet_01v8 ad=0.2 pd=1.4 as=0.2 ps=1.4 w=1 l=0.15
X3 PFET_GATE_10uA 1st_Vout_2 w_32720_10# w_32720_10# sky130_fd_pr__pfet_01v8 ad=0.2 pd=1.4 as=0.2 ps=1.4 w=1 l=0.2
X4 a_38570_n6514# a_38690_n7778# sky130_fd_pr__rf_pnp_05v5_W3p40L3p40_8/Base sky130_fd_pr__res_xhigh_po_0p35 l=4.28
X5 V_mir2 V_mir2 w_32720_10# w_32720_10# sky130_fd_pr__pfet_01v8 ad=0.2 pd=1.4 as=0.2 ps=1.4 w=1 l=0.2
X6 w_32630_2620# w_32630_2620# w_32630_2620# w_32630_2620# sky130_fd_pr__pfet_01v8 ad=0.4 pd=2.8 as=7.2 ps=50.4 w=1 l=0.15
X7 w_32750_1490# w_32750_1490# ERR_AMP_REF w_32750_1490# sky130_fd_pr__pfet_01v8 ad=1.2 pd=6.8 as=0.6 ps=3.4 w=3 l=0.5
X8 1st_Vout_1 V_mir1 w_32720_10# w_32720_10# sky130_fd_pr__pfet_01v8 ad=0.2 pd=1.4 as=0.2 ps=1.4 w=1 l=0.2
X9 1st_Vout_1 cap_res1 sky130_fd_pr__cap_mim_m3_1 l=2 w=2
X10 V_mir1 V_mir1 w_32720_10# w_32720_10# sky130_fd_pr__pfet_01v8 ad=0.2 pd=1.4 as=0.2 ps=1.4 w=1 l=0.2
X11 VB2_CUR_BIAS sky130_fd_pr__rf_pnp_05v5_W3p40L3p40_8/Base sky130_fd_pr__rf_pnp_05v5_W3p40L3p40_8/Base sky130_fd_pr__rf_pnp_05v5_W3p40L3p40_8/Base sky130_fd_pr__nfet_01v8 ad=0.2 pd=1.4 as=0.4 ps=2.8 w=1 l=0.15
X12 1st_Vout_1 cap_res1 sky130_fd_pr__cap_mim_m3_1 l=2 w=2
X13 sky130_fd_pr__rf_pnp_05v5_W3p40L3p40_8/Base sky130_fd_pr__rf_pnp_05v5_W3p40L3p40_8/Base V_CMFB_S2 sky130_fd_pr__rf_pnp_05v5_W3p40L3p40_8/Base sky130_fd_pr__nfet_01v8 ad=0.4 pd=2.8 as=0.2 ps=1.4 w=1 l=0.15
X14 V_CMFB_S2 NFET_GATE_10uA sky130_fd_pr__rf_pnp_05v5_W3p40L3p40_8/Base sky130_fd_pr__rf_pnp_05v5_W3p40L3p40_8/Base sky130_fd_pr__nfet_01v8 ad=0.2 pd=1.4 as=0.2 ps=1.4 w=1 l=0.15
X15 sky130_fd_pr__rf_pnp_05v5_W3p40L3p40_8/Base NFET_GATE_10uA V_CMFB_S2 sky130_fd_pr__rf_pnp_05v5_W3p40L3p40_8/Base sky130_fd_pr__nfet_01v8 ad=0.2 pd=1.4 as=0.2 ps=1.4 w=1 l=0.15
X16 Vin+ V_TOP w_32750_1490# w_32750_1490# sky130_fd_pr__pfet_01v8 ad=0.6 pd=3.4 as=0.6 ps=3.4 w=3 l=0.5
X17 V_TOP 1st_Vout_1 w_32720_10# w_32720_10# sky130_fd_pr__pfet_01v8 ad=0.2 pd=1.4 as=0.2 ps=1.4 w=1 l=0.2
X18 TAIL_CUR_MIR_BIAS PFET_GATE_10uA w_32630_2620# w_32630_2620# sky130_fd_pr__pfet_01v8 ad=0.2 pd=1.4 as=0.2 ps=1.4 w=1 l=0.15
X19 1st_Vout_1 cap_res1 sky130_fd_pr__cap_mim_m3_1 l=2 w=2
X20 ERR_AMP_REF w_32750_1490# w_32750_1490# w_32750_1490# sky130_fd_pr__pfet_01v8 ad=0.6 pd=3.4 as=1.2 ps=6.8 w=3 l=0.5
X21 START_UP V_TOP w_32750_1490# w_32750_1490# sky130_fd_pr__pfet_01v8 ad=0.6 pd=3.4 as=0.6 ps=3.4 w=3 l=0.5
X22 w_32720_10# 1st_Vout_2 PFET_GATE_10uA w_32720_10# sky130_fd_pr__pfet_01v8 ad=0.2 pd=1.4 as=0.2 ps=1.4 w=1 l=0.2
X23 sky130_fd_pr__rf_pnp_05v5_W3p40L3p40_8/Base NFET_GATE_10uA ERR_AMP_CUR_BIAS sky130_fd_pr__rf_pnp_05v5_W3p40L3p40_8/Base sky130_fd_pr__nfet_01v8 ad=0.2 pd=1.4 as=0.2 ps=1.4 w=1 l=0.15
X24 1st_Vout_2 cap_res2 sky130_fd_pr__cap_mim_m3_1 l=2 w=2
X25 w_32720_10# w_32720_10# V_TOP w_32720_10# sky130_fd_pr__pfet_01v8 ad=0.4 pd=2.8 as=0.2 ps=1.4 w=1 l=0.2
X26 V_CUR_REF_REG a_32320_n7778# sky130_fd_pr__rf_pnp_05v5_W3p40L3p40_8/Base sky130_fd_pr__res_xhigh_po_0p35 l=4
X27 w_32720_10# V_mir2 V_mir2 w_32720_10# sky130_fd_pr__pfet_01v8 ad=0.2 pd=1.4 as=0.2 ps=1.4 w=1 l=0.2
X28 1st_Vout_2 cap_res2 sky130_fd_pr__cap_mim_m3_1 l=2 w=2
X29 w_32720_10# V_mir1 1st_Vout_1 w_32720_10# sky130_fd_pr__pfet_01v8 ad=0.2 pd=1.4 as=0.2 ps=1.4 w=1 l=0.2
X30 1st_Vout_2 cap_res2 sky130_fd_pr__cap_mim_m3_1 l=2 w=2
X31 sky130_fd_pr__rf_pnp_05v5_W3p40L3p40_8/Base START_UP_NFET1 START_UP_NFET1 sky130_fd_pr__rf_pnp_05v5_W3p40L3p40_8/Base sky130_fd_pr__nfet_01v8 ad=0.4 pd=2.8 as=0.2 ps=1.4 w=1 l=10
X32 1st_Vout_2 cap_res2 sky130_fd_pr__cap_mim_m3_1 l=2 w=2
X33 w_32720_10# V_mir1 V_mir1 w_32720_10# sky130_fd_pr__pfet_01v8 ad=0.2 pd=1.4 as=0.2 ps=1.4 w=1 l=0.2
X34 1st_Vout_2 cap_res2 sky130_fd_pr__cap_mim_m3_1 l=2 w=2
X35 NFET_GATE_10uA w_32630_2620# w_32630_2620# w_32630_2620# sky130_fd_pr__pfet_01v8 ad=0.2 pd=1.4 as=0.4 ps=2.8 w=1 l=0.15
X36 TAIL_CUR_MIR_BIAS PFET_GATE_10uA w_32630_2620# w_32630_2620# sky130_fd_pr__pfet_01v8 ad=0.2 pd=1.4 as=0.2 ps=1.4 w=1 l=0.15
X37 V_p_1 Vin- V_mir1 sky130_fd_pr__rf_pnp_05v5_W3p40L3p40_8/Base sky130_fd_pr__nfet_01v8 ad=0.5 pd=2.9 as=1 ps=5.8 w=2.5 l=0.2
X38 1st_Vout_1 cap_res1 sky130_fd_pr__cap_mim_m3_1 l=2 w=2
X39 1st_Vout_2 cap_res2 sky130_fd_pr__cap_mim_m3_1 l=2 w=2
X40 VB1_CUR_BIAS w_37690_1490# w_37690_1490# w_37690_1490# sky130_fd_pr__pfet_01v8 ad=0.4 pd=2.4 as=0.8 ps=4.8 w=2 l=0.15
X41 w_37690_1490# w_37690_1490# w_37690_1490# w_37690_1490# sky130_fd_pr__pfet_01v8 ad=0.4 pd=2.4 as=2.4 ps=14.4 w=2 l=0.15
X42 w_32630_2620# PFET_GATE_10uA V_CMFB_S1 w_32630_2620# sky130_fd_pr__pfet_01v8 ad=0.2 pd=1.4 as=0.2 ps=1.4 w=1 l=0.15
X43 1st_Vout_2 cap_res2 sky130_fd_pr__cap_mim_m3_1 l=2 w=2
X44 1st_Vout_1 cap_res1 sky130_fd_pr__cap_mim_m3_1 l=2 w=2
X45 1st_Vout_1 cap_res1 sky130_fd_pr__cap_mim_m3_1 l=2 w=2
X46 V_TOP m1_35910_n8890# sky130_fd_pr__cap_mim_m3_1 l=2 w=2
X47 1st_Vout_1 V_mir1 w_32720_10# w_32720_10# sky130_fd_pr__pfet_01v8 ad=0.2 pd=1.4 as=0.2 ps=1.4 w=1 l=0.2
X48 1st_Vout_1 cap_res1 sky130_fd_pr__cap_mim_m3_1 l=2 w=2
X49 w_32630_2620# w_32630_2620# V_CMFB_S3 w_32630_2620# sky130_fd_pr__pfet_01v8 ad=0.4 pd=2.8 as=0.2 ps=1.4 w=1 l=0.15
X50 w_32750_1490# V_TOP ERR_AMP_REF w_32750_1490# sky130_fd_pr__pfet_01v8 ad=0.6 pd=3.4 as=0.6 ps=3.4 w=3 l=0.5
X51 1st_Vout_2 V_mir2 w_32720_10# w_32720_10# sky130_fd_pr__pfet_01v8 ad=0.2 pd=1.4 as=0.2 ps=1.4 w=1 l=0.2
X52 1st_Vout_1 cap_res1 sky130_fd_pr__cap_mim_m3_1 l=2 w=2
X53 w_32750_1490# V_TOP START_UP w_32750_1490# sky130_fd_pr__pfet_01v8 ad=0.6 pd=3.4 as=0.6 ps=3.4 w=3 l=0.5
X54 V_TOP m1_35910_n8890# sky130_fd_pr__cap_mim_m3_1 l=2 w=2
X55 PFET_GATE_10uA 1st_Vout_2 w_32720_10# w_32720_10# sky130_fd_pr__pfet_01v8 ad=0.2 pd=1.4 as=0.2 ps=1.4 w=1 l=0.2
X56 TAIL_CUR_MIR_BIAS PFET_GATE_10uA w_32630_2620# w_32630_2620# sky130_fd_pr__pfet_01v8 ad=0.2 pd=1.4 as=0.2 ps=1.4 w=1 l=0.15
X57 V_TOP 1st_Vout_1 w_32720_10# w_32720_10# sky130_fd_pr__pfet_01v8 ad=0.2 pd=1.4 as=0.2 ps=1.4 w=1 l=0.2
X58 V_TOP m1_35910_n8890# sky130_fd_pr__cap_mim_m3_1 l=2 w=2
X59 w_32630_2620# w_32630_2620# w_32630_2620# w_32630_2620# sky130_fd_pr__pfet_01v8 ad=0.2 pd=1.4 as=0 ps=0 w=1 l=0.15
X60 1st_Vout_2 cap_res2 sky130_fd_pr__cap_mim_m3_1 l=2 w=2
X61 V_TOP m1_35910_n8890# sky130_fd_pr__cap_mim_m3_1 l=2 w=2
X62 V_p_2 a_33140_n1920# sky130_fd_pr__rf_pnp_05v5_W3p40L3p40_8/Base sky130_fd_pr__rf_pnp_05v5_W3p40L3p40_8/Base sky130_fd_pr__nfet_01v8 ad=1 pd=5.8 as=1 ps=5.8 w=2.5 l=5
X63 VB2_CUR_BIAS NFET_GATE_10uA sky130_fd_pr__rf_pnp_05v5_W3p40L3p40_8/Base sky130_fd_pr__rf_pnp_05v5_W3p40L3p40_8/Base sky130_fd_pr__nfet_01v8 ad=0.2 pd=1.4 as=0.2 ps=1.4 w=1 l=0.15
X64 VB2_CUR_BIAS NFET_GATE_10uA sky130_fd_pr__rf_pnp_05v5_W3p40L3p40_8/Base sky130_fd_pr__rf_pnp_05v5_W3p40L3p40_8/Base sky130_fd_pr__nfet_01v8 ad=0.2 pd=1.4 as=0.2 ps=1.4 w=1 l=0.15
X65 w_32750_1490# w_32750_1490# V_TOP w_32750_1490# sky130_fd_pr__pfet_01v8 ad=0.45 pd=2.9 as=0.2 ps=1.4 w=1 l=0.15
X66 w_32720_10# 1st_Vout_2 PFET_GATE_10uA w_32720_10# sky130_fd_pr__pfet_01v8 ad=0.2 pd=1.4 as=0.2 ps=1.4 w=1 l=0.2
X67 sky130_fd_pr__rf_pnp_05v5_W3p40L3p40_8/Base NFET_GATE_10uA VB2_CUR_BIAS sky130_fd_pr__rf_pnp_05v5_W3p40L3p40_8/Base sky130_fd_pr__nfet_01v8 ad=0.2 pd=1.4 as=0.2 ps=1.4 w=1 l=0.15
X68 w_32630_2620# PFET_GATE_10uA V_CMFB_S3 w_32630_2620# sky130_fd_pr__pfet_01v8 ad=0.2 pd=1.4 as=0.2 ps=1.4 w=1 l=0.15
X69 w_32630_2620# PFET_GATE_10uA V_CMFB_S3 w_32630_2620# sky130_fd_pr__pfet_01v8 ad=0.2 pd=1.4 as=0.2 ps=1.4 w=1 l=0.15
X70 w_32720_10# V_mir1 1st_Vout_1 w_32720_10# sky130_fd_pr__pfet_01v8 ad=0.2 pd=1.4 as=0.2 ps=1.4 w=1 l=0.2
X71 w_32720_10# V_mir2 1st_Vout_2 w_32720_10# sky130_fd_pr__pfet_01v8 ad=0.2 pd=1.4 as=0.2 ps=1.4 w=1 l=0.2
X72 1st_Vout_1 Vin+ V_p_1 sky130_fd_pr__rf_pnp_05v5_W3p40L3p40_8/Base sky130_fd_pr__nfet_01v8 ad=1 pd=5.8 as=0.5 ps=2.9 w=2.5 l=0.2
X73 ERR_AMP_REF V_TOP w_32750_1490# w_32750_1490# sky130_fd_pr__pfet_01v8 ad=0.6 pd=3.4 as=0.6 ps=3.4 w=3 l=0.5
X74 w_32720_10# 1st_Vout_1 V_TOP w_32720_10# sky130_fd_pr__pfet_01v8 ad=0.2 pd=1.4 as=0.2 ps=1.4 w=1 l=0.2
X75 sky130_fd_pr__rf_pnp_05v5_W3p40L3p40_8/Base NFET_GATE_10uA VB3_CUR_BIAS sky130_fd_pr__rf_pnp_05v5_W3p40L3p40_8/Base sky130_fd_pr__nfet_01v8 ad=0.2 pd=1.4 as=0.2 ps=1.4 w=1 l=0.15
X76 VB3_CUR_BIAS sky130_fd_pr__rf_pnp_05v5_W3p40L3p40_8/Base sky130_fd_pr__rf_pnp_05v5_W3p40L3p40_8/Base sky130_fd_pr__rf_pnp_05v5_W3p40L3p40_8/Base sky130_fd_pr__nfet_01v8 ad=0.2 pd=1.4 as=0.4 ps=2.8 w=1 l=0.15
X77 Vin+ a_38040_n7928# sky130_fd_pr__rf_pnp_05v5_W3p40L3p40_8/Base sky130_fd_pr__res_xhigh_po_0p35 l=6
X78 Vin+ V_TOP w_32750_1490# w_32750_1490# sky130_fd_pr__pfet_01v8 ad=0.6 pd=3.4 as=0.6 ps=3.4 w=3 l=0.5
X79 Vin- START_UP V_TOP w_32750_1490# sky130_fd_pr__pfet_01v8 ad=0.2 pd=1.4 as=0.2 ps=1.4 w=1 l=0.15
X80 Vin+ sky130_fd_pr__rf_pnp_05v5_W3p40L3p40_8/Emitter sky130_fd_pr__rf_pnp_05v5_W3p40L3p40_8/Base sky130_fd_pr__res_xhigh_po_0p35 l=2.3
X81 sky130_fd_pr__rf_pnp_05v5_W3p40L3p40_8/Base NFET_GATE_10uA VB2_CUR_BIAS sky130_fd_pr__rf_pnp_05v5_W3p40L3p40_8/Base sky130_fd_pr__nfet_01v8 ad=0.2 pd=1.4 as=0.2 ps=1.4 w=1 l=0.15
X82 1st_Vout_2 V_mir2 w_32720_10# w_32720_10# sky130_fd_pr__pfet_01v8 ad=0.2 pd=1.4 as=0.2 ps=1.4 w=1 l=0.2
X83 V_TOP m1_35910_n8890# sky130_fd_pr__cap_mim_m3_1 l=2 w=2
X84 V_CMFB_S2 NFET_GATE_10uA sky130_fd_pr__rf_pnp_05v5_W3p40L3p40_8/Base sky130_fd_pr__rf_pnp_05v5_W3p40L3p40_8/Base sky130_fd_pr__nfet_01v8 ad=0.2 pd=1.4 as=0.2 ps=1.4 w=1 l=0.15
X85 V_mir1 V_mir1 w_32720_10# w_32720_10# sky130_fd_pr__pfet_01v8 ad=0.2 pd=1.4 as=0.2 ps=1.4 w=1 l=0.2
X86 PFET_GATE_10uA w_32720_10# w_32720_10# w_32720_10# sky130_fd_pr__pfet_01v8 ad=0.2 pd=1.4 as=0.4 ps=2.8 w=1 l=0.2
X87 V_CUR_REF_REG PFET_GATE_10uA w_32630_2620# w_32630_2620# sky130_fd_pr__pfet_01v8 ad=0.2 pd=1.4 as=0.2 ps=1.4 w=1 l=0.15
X88 V_TOP 1st_Vout_1 w_32720_10# w_32720_10# sky130_fd_pr__pfet_01v8 ad=0.2 pd=1.4 as=0.2 ps=1.4 w=1 l=0.2
X89 V_mir2 V_mir2 w_32720_10# w_32720_10# sky130_fd_pr__pfet_01v8 ad=0.2 pd=1.4 as=0.2 ps=1.4 w=1 l=0.2
X90 V_TOP m1_35910_n8890# sky130_fd_pr__cap_mim_m3_1 l=2 w=2
X91 1st_Vout_2 cap_res2 sky130_fd_pr__cap_mim_m3_1 l=2 w=2
X92 1st_Vout_2 cap_res2 sky130_fd_pr__cap_mim_m3_1 l=2 w=2
X93 sky130_fd_pr__rf_pnp_05v5_W3p40L3p40_8/Base NFET_GATE_10uA NFET_GATE_10uA sky130_fd_pr__rf_pnp_05v5_W3p40L3p40_8/Base sky130_fd_pr__nfet_01v8 ad=0.2 pd=1.4 as=0.2 ps=1.4 w=1 l=0.15
X94 w_32630_2620# PFET_GATE_10uA TAIL_CUR_MIR_BIAS w_32630_2620# sky130_fd_pr__pfet_01v8 ad=0.2 pd=1.4 as=0.2 ps=1.4 w=1 l=0.15
X95 ERR_AMP_CUR_BIAS NFET_GATE_10uA sky130_fd_pr__rf_pnp_05v5_W3p40L3p40_8/Base sky130_fd_pr__rf_pnp_05v5_W3p40L3p40_8/Base sky130_fd_pr__nfet_01v8 ad=0.2 pd=1.4 as=0.2 ps=1.4 w=1 l=0.15
X96 1st_Vout_2 cap_res2 sky130_fd_pr__cap_mim_m3_1 l=2 w=2
X97 1st_Vout_1 cap_res1 sky130_fd_pr__cap_mim_m3_1 l=2 w=2
X98 V_CMFB_S1 w_32630_2620# w_32630_2620# w_32630_2620# sky130_fd_pr__pfet_01v8 ad=0.2 pd=1.4 as=0.4 ps=2.8 w=1 l=0.15
X99 1st_Vout_2 cap_res2 sky130_fd_pr__cap_mim_m3_1 l=2 w=2
X100 1st_Vout_1 cap_res1 sky130_fd_pr__cap_mim_m3_1 l=2 w=2
X101 V_TOP m1_35910_n8890# sky130_fd_pr__cap_mim_m3_1 l=2 w=2
X102 1st_Vout_1 cap_res1 sky130_fd_pr__cap_mim_m3_1 l=2 w=2
X103 w_32720_10# V_mir1 V_mir1 w_32720_10# sky130_fd_pr__pfet_01v8 ad=0.2 pd=1.4 as=0.2 ps=1.4 w=1 l=0.2
X104 1st_Vout_1 cap_res1 sky130_fd_pr__cap_mim_m3_1 l=2 w=2
X105 w_32720_10# 1st_Vout_1 V_TOP w_32720_10# sky130_fd_pr__pfet_01v8 ad=0.2 pd=1.4 as=0.2 ps=1.4 w=1 l=0.2
X106 w_32750_1490# V_TOP Vin+ w_32750_1490# sky130_fd_pr__pfet_01v8 ad=0.6 pd=3.4 as=0.6 ps=3.4 w=3 l=0.5
X107 V_TOP m1_35910_n8890# sky130_fd_pr__cap_mim_m3_1 l=2 w=2
X108 1st_Vout_2 cap_res2 sky130_fd_pr__cap_mim_m3_1 l=2 w=2
X109 Vin- a_32970_n7928# sky130_fd_pr__rf_pnp_05v5_W3p40L3p40_8/Base sky130_fd_pr__res_xhigh_po_0p35 l=6
X110 w_32630_2620# PFET_GATE_10uA TAIL_CUR_MIR_BIAS w_32630_2620# sky130_fd_pr__pfet_01v8 ad=0.2 pd=1.4 as=0.2 ps=1.4 w=1 l=0.15
X111 V_TOP m1_35910_n8890# sky130_fd_pr__cap_mim_m3_1 l=2 w=2
X112 a_32440_n6570# a_32320_n7778# sky130_fd_pr__rf_pnp_05v5_W3p40L3p40_8/Base sky130_fd_pr__res_xhigh_po_0p35 l=4
X113 sky130_fd_pr__rf_pnp_05v5_W3p40L3p40_8/Base a_33140_n1920# PFET_GATE_10uA sky130_fd_pr__rf_pnp_05v5_W3p40L3p40_8/Base sky130_fd_pr__nfet_01v8 ad=1 pd=5.8 as=1 ps=5.8 w=2.5 l=5
X114 START_UP V_TOP w_32750_1490# w_32750_1490# sky130_fd_pr__pfet_01v8 ad=0.6 pd=3.4 as=0.6 ps=3.4 w=3 l=0.5
X115 V_TOP a_33140_n1920# sky130_fd_pr__rf_pnp_05v5_W3p40L3p40_8/Base sky130_fd_pr__rf_pnp_05v5_W3p40L3p40_8/Base sky130_fd_pr__nfet_01v8 ad=1 pd=5.8 as=1.01 ps=6.15 w=2.5 l=5
X116 V_TOP w_32750_1490# w_32750_1490# w_32750_1490# sky130_fd_pr__pfet_01v8 ad=0.2 pd=1.4 as=0.4 ps=2.8 w=1 l=0.15
X117 V_TOP w_32720_10# w_32720_10# w_32720_10# sky130_fd_pr__pfet_01v8 ad=0.2 pd=1.4 as=0.4 ps=2.8 w=1 l=0.2
X118 V_TOP m1_35910_n8890# sky130_fd_pr__cap_mim_m3_1 l=2 w=2
X119 a_38570_n6514# sky130_fd_pr__rf_pnp_05v5_W3p40L3p40_8/Base sky130_fd_pr__rf_pnp_05v5_W3p40L3p40_8/Base sky130_fd_pr__res_xhigh_po_0p35 l=4.28
X120 a_33090_n6320# a_32560_n7778# sky130_fd_pr__rf_pnp_05v5_W3p40L3p40_8/Base sky130_fd_pr__res_xhigh_po_0p35 l=6
X121 1st_Vout_1 V_mir1 w_32720_10# w_32720_10# sky130_fd_pr__pfet_01v8 ad=0.2 pd=1.4 as=0.2 ps=1.4 w=1 l=0.2
X122 w_32630_2620# PFET_GATE_10uA NFET_GATE_10uA w_32630_2620# sky130_fd_pr__pfet_01v8 ad=0.2 pd=1.4 as=0.2 ps=1.4 w=1 l=0.15
X123 w_32630_2620# PFET_GATE_10uA TAIL_CUR_MIR_BIAS w_32630_2620# sky130_fd_pr__pfet_01v8 ad=0.2 pd=1.4 as=0.2 ps=1.4 w=1 l=0.15
X124 V_mir1 V_mir1 w_32720_10# w_32720_10# sky130_fd_pr__pfet_01v8 ad=0.2 pd=1.4 as=0.2 ps=1.4 w=1 l=0.2
X125 a_37920_n6320# sky130_fd_pr__rf_pnp_05v5_W3p40L3p40_8/Base sky130_fd_pr__rf_pnp_05v5_W3p40L3p40_8/Base sky130_fd_pr__res_xhigh_po_0p35 l=6
X126 sky130_fd_pr__rf_pnp_05v5_W3p40L3p40_8/Base NFET_GATE_10uA V_CMFB_S4 sky130_fd_pr__rf_pnp_05v5_W3p40L3p40_8/Base sky130_fd_pr__nfet_01v8 ad=0.2 pd=1.4 as=0.2 ps=1.4 w=1 l=0.15
X127 sky130_fd_pr__rf_pnp_05v5_W3p40L3p40_8/Base NFET_GATE_10uA V_CMFB_S4 sky130_fd_pr__rf_pnp_05v5_W3p40L3p40_8/Base sky130_fd_pr__nfet_01v8 ad=0.2 pd=1.4 as=0.2 ps=1.4 w=1 l=0.15
X128 V_CMFB_S1 PFET_GATE_10uA w_32630_2620# w_32630_2620# sky130_fd_pr__pfet_01v8 ad=0.2 pd=1.4 as=0.2 ps=1.4 w=1 l=0.15
X129 PFET_GATE_10uA cap_res2 sky130_fd_pr__rf_pnp_05v5_W3p40L3p40_8/Base sky130_fd_pr__res_high_po_0p35 l=2.05
X130 V_TOP m1_35910_n8890# sky130_fd_pr__cap_mim_m3_1 l=2 w=2
X131 V_TOP cap_res1 sky130_fd_pr__rf_pnp_05v5_W3p40L3p40_8/Base sky130_fd_pr__res_high_po_0p35 l=2.05
X132 V_TOP m1_35910_n8890# sky130_fd_pr__cap_mim_m3_1 l=2 w=2
X133 sky130_fd_pr__rf_pnp_05v5_W3p40L3p40_8/Base sky130_fd_pr__rf_pnp_05v5_W3p40L3p40_8/Base VB3_CUR_BIAS sky130_fd_pr__rf_pnp_05v5_W3p40L3p40_8/Base sky130_fd_pr__nfet_01v8 ad=0.4 pd=2.8 as=0.2 ps=1.4 w=1 l=0.15
X134 VB3_CUR_BIAS NFET_GATE_10uA sky130_fd_pr__rf_pnp_05v5_W3p40L3p40_8/Base sky130_fd_pr__rf_pnp_05v5_W3p40L3p40_8/Base sky130_fd_pr__nfet_01v8 ad=0.2 pd=1.4 as=0.2 ps=1.4 w=1 l=0.15
X135 V_TOP m1_35910_n8890# sky130_fd_pr__cap_mim_m3_1 l=2 w=2
X136 1st_Vout_2 cap_res2 sky130_fd_pr__cap_mim_m3_1 l=2 w=2
X137 w_32750_1490# V_TOP START_UP w_32750_1490# sky130_fd_pr__pfet_01v8 ad=0.6 pd=3.4 as=0.6 ps=3.4 w=3 l=0.5
X138 V_p_2 V_CUR_REF_REG 1st_Vout_2 sky130_fd_pr__rf_pnp_05v5_W3p40L3p40_8/Base sky130_fd_pr__nfet_01v8 ad=0.5 pd=2.9 as=1 ps=5.8 w=2.5 l=0.2
X139 w_32630_2620# PFET_GATE_10uA TAIL_CUR_MIR_BIAS w_32630_2620# sky130_fd_pr__pfet_01v8 ad=0.2 pd=1.4 as=0.2 ps=1.4 w=1 l=0.15
X140 w_32720_10# V_mir1 1st_Vout_1 w_32720_10# sky130_fd_pr__pfet_01v8 ad=0.2 pd=1.4 as=0.2 ps=1.4 w=1 l=0.2
X141 V_TOP m1_35910_n8890# sky130_fd_pr__cap_mim_m3_1 l=2 w=2
X142 1st_Vout_1 cap_res1 sky130_fd_pr__cap_mim_m3_1 l=2 w=2
X143 V_CMFB_S1 PFET_GATE_10uA w_32630_2620# w_32630_2620# sky130_fd_pr__pfet_01v8 ad=0.2 pd=1.4 as=0.2 ps=1.4 w=1 l=0.15
X144 w_37690_1490# PFET_GATE_10uA VB1_CUR_BIAS w_37690_1490# sky130_fd_pr__pfet_01v8 ad=0.4 pd=2.4 as=0.4 ps=2.4 w=2 l=0.15
X145 1st_Vout_2 cap_res2 sky130_fd_pr__cap_mim_m3_1 l=2 w=2
X146 VB2_CUR_BIAS NFET_GATE_10uA sky130_fd_pr__rf_pnp_05v5_W3p40L3p40_8/Base sky130_fd_pr__rf_pnp_05v5_W3p40L3p40_8/Base sky130_fd_pr__nfet_01v8 ad=0.2 pd=1.4 as=0.2 ps=1.4 w=1 l=0.15
X147 sky130_fd_pr__rf_pnp_05v5_W3p40L3p40_8/Base NFET_GATE_10uA VB2_CUR_BIAS sky130_fd_pr__rf_pnp_05v5_W3p40L3p40_8/Base sky130_fd_pr__nfet_01v8 ad=0.2 pd=1.4 as=0.2 ps=1.4 w=1 l=0.15
X148 w_32750_1490# V_TOP Vin+ w_32750_1490# sky130_fd_pr__pfet_01v8 ad=0.6 pd=3.4 as=0.6 ps=3.4 w=3 l=0.5
X149 w_32720_10# V_mir2 V_mir2 w_32720_10# sky130_fd_pr__pfet_01v8 ad=0.2 pd=1.4 as=0.2 ps=1.4 w=1 l=0.2
X150 1st_Vout_1 cap_res1 sky130_fd_pr__cap_mim_m3_1 l=2 w=2
X151 V_TOP m1_35910_n8890# sky130_fd_pr__cap_mim_m3_1 l=2 w=2
X152 V_CMFB_S3 PFET_GATE_10uA w_32630_2620# w_32630_2620# sky130_fd_pr__pfet_01v8 ad=0.2 pd=1.4 as=0.2 ps=1.4 w=1 l=0.15
X153 w_32720_10# V_mir2 1st_Vout_2 w_32720_10# sky130_fd_pr__pfet_01v8 ad=0.2 pd=1.4 as=0.2 ps=1.4 w=1 l=0.2
X154 sky130_fd_pr__rf_pnp_05v5_W3p40L3p40_8/Base a_33140_n1920# V_p_1 sky130_fd_pr__rf_pnp_05v5_W3p40L3p40_8/Base sky130_fd_pr__nfet_01v8 ad=1.01 pd=6.15 as=1 ps=5.8 w=2.5 l=5
X155 1st_Vout_1 cap_res1 sky130_fd_pr__cap_mim_m3_1 l=2 w=2
X156 V_CMFB_S3 PFET_GATE_10uA w_32630_2620# w_32630_2620# sky130_fd_pr__pfet_01v8 ad=0.2 pd=1.4 as=0.2 ps=1.4 w=1 l=0.15
X157 w_32720_10# 1st_Vout_2 PFET_GATE_10uA w_32720_10# sky130_fd_pr__pfet_01v8 ad=0.2 pd=1.4 as=0.2 ps=1.4 w=1 l=0.2
X158 1st_Vout_1 cap_res1 sky130_fd_pr__cap_mim_m3_1 l=2 w=2
X159 NFET_GATE_10uA sky130_fd_pr__rf_pnp_05v5_W3p40L3p40_8/Base sky130_fd_pr__rf_pnp_05v5_W3p40L3p40_8/Base sky130_fd_pr__rf_pnp_05v5_W3p40L3p40_8/Base sky130_fd_pr__nfet_01v8 ad=0.2 pd=1.4 as=0.4 ps=2.8 w=1 l=0.15
X160 sky130_fd_pr__rf_pnp_05v5_W3p40L3p40_8/Base sky130_fd_pr__rf_pnp_05v5_W3p40L3p40_8/Base sky130_fd_pr__rf_pnp_05v5_W3p40L3p40_8/Base sky130_fd_pr__rf_pnp_05v5_W3p40L3p40_8/Base sky130_fd_pr__nfet_01v8 ad=0.2 pd=1.4 as=68.89203 ps=394.705 w=1 l=0.15
X161 ERR_AMP_REF a_38690_n7778# sky130_fd_pr__rf_pnp_05v5_W3p40L3p40_8/Base sky130_fd_pr__res_xhigh_po_0p35 l=4.28
X162 START_UP_NFET1 START_UP START_UP sky130_fd_pr__rf_pnp_05v5_W3p40L3p40_8/Base sky130_fd_pr__nfet_01v8 ad=0.2 pd=1.4 as=0.4 ps=2.8 w=1 l=10
X163 Vin- V_TOP w_32750_1490# w_32750_1490# sky130_fd_pr__pfet_01v8 ad=0.6 pd=3.4 as=0.6 ps=3.4 w=3 l=0.5
X164 1st_Vout_2 V_mir2 w_32720_10# w_32720_10# sky130_fd_pr__pfet_01v8 ad=0.2 pd=1.4 as=0.2 ps=1.4 w=1 l=0.2
X165 1st_Vout_1 cap_res1 sky130_fd_pr__cap_mim_m3_1 l=2 w=2
X166 a_33090_n6320# a_32970_n7928# sky130_fd_pr__rf_pnp_05v5_W3p40L3p40_8/Base sky130_fd_pr__res_xhigh_po_0p35 l=6
X167 V_CMFB_S3 w_32630_2620# w_32630_2620# w_32630_2620# sky130_fd_pr__pfet_01v8 ad=0.2 pd=1.4 as=0.4 ps=2.8 w=1 l=0.15
X168 V_TOP START_UP Vin- w_32750_1490# sky130_fd_pr__pfet_01v8 ad=0.2 pd=1.4 as=0.2 ps=1.4 w=1 l=0.15
X169 ERR_AMP_REF V_TOP w_32750_1490# w_32750_1490# sky130_fd_pr__pfet_01v8 ad=0.6 pd=3.4 as=0.6 ps=3.4 w=3 l=0.5
X170 PFET_GATE_10uA 1st_Vout_2 w_32720_10# w_32720_10# sky130_fd_pr__pfet_01v8 ad=0.2 pd=1.4 as=0.2 ps=1.4 w=1 l=0.2
X171 sky130_fd_pr__rf_pnp_05v5_W3p40L3p40_8/Base sky130_fd_pr__rf_pnp_05v5_W3p40L3p40_8/Base VB2_CUR_BIAS sky130_fd_pr__rf_pnp_05v5_W3p40L3p40_8/Base sky130_fd_pr__nfet_01v8 ad=0.4 pd=2.8 as=0.2 ps=1.4 w=1 l=0.15
X172 w_32630_2620# w_32630_2620# V_CMFB_S1 w_32630_2620# sky130_fd_pr__pfet_01v8 ad=0.4 pd=2.8 as=0.2 ps=1.4 w=1 l=0.15
X173 V_mir2 V_mir2 w_32720_10# w_32720_10# sky130_fd_pr__pfet_01v8 ad=0.2 pd=1.4 as=0.2 ps=1.4 w=1 l=0.2
X174 V_mir2 ERR_AMP_REF V_p_2 sky130_fd_pr__rf_pnp_05v5_W3p40L3p40_8/Base sky130_fd_pr__nfet_01v8 ad=1 pd=5.8 as=0.5 ps=2.9 w=2.5 l=0.2
X175 1st_Vout_2 cap_res2 sky130_fd_pr__cap_mim_m3_1 l=2 w=2
X176 V_TOP m1_35910_n8890# sky130_fd_pr__cap_mim_m3_1 l=2 w=2
X177 w_32630_2620# w_32630_2620# V_CUR_REF_REG w_32630_2620# sky130_fd_pr__pfet_01v8 ad=0.4 pd=2.8 as=0.2 ps=1.4 w=1 l=0.15
X178 Vin- V_TOP w_32750_1490# w_32750_1490# sky130_fd_pr__pfet_01v8 ad=0.6 pd=3.4 as=0.6 ps=3.4 w=3 l=0.5
X179 1st_Vout_2 cap_res2 sky130_fd_pr__cap_mim_m3_1 l=2 w=2
X180 1st_Vout_2 cap_res2 sky130_fd_pr__cap_mim_m3_1 l=2 w=2
X181 1st_Vout_1 cap_res1 sky130_fd_pr__cap_mim_m3_1 l=2 w=2
X182 w_32750_1490# V_TOP Vin- w_32750_1490# sky130_fd_pr__pfet_01v8 ad=0.6 pd=3.4 as=0.6 ps=3.4 w=3 l=0.5
X183 w_32630_2620# PFET_GATE_10uA V_CMFB_S1 w_32630_2620# sky130_fd_pr__pfet_01v8 ad=0.2 pd=1.4 as=0.2 ps=1.4 w=1 l=0.15
X184 w_32720_10# V_mir2 1st_Vout_2 w_32720_10# sky130_fd_pr__pfet_01v8 ad=0.2 pd=1.4 as=0.2 ps=1.4 w=1 l=0.2
X185 w_32720_10# V_mir1 V_mir1 w_32720_10# sky130_fd_pr__pfet_01v8 ad=0.2 pd=1.4 as=0.2 ps=1.4 w=1 l=0.2
X186 1st_Vout_1 cap_res1 sky130_fd_pr__cap_mim_m3_1 l=2 w=2
X187 1st_Vout_1 cap_res1 sky130_fd_pr__cap_mim_m3_1 l=2 w=2
X188 a_37920_n6320# a_38040_n7928# sky130_fd_pr__rf_pnp_05v5_W3p40L3p40_8/Base sky130_fd_pr__res_xhigh_po_0p35 l=6
X189 w_32720_10# w_32720_10# PFET_GATE_10uA w_32720_10# sky130_fd_pr__pfet_01v8 ad=0.4 pd=2.8 as=0.2 ps=1.4 w=1 l=0.2
X190 w_32720_10# 1st_Vout_1 V_TOP w_32720_10# sky130_fd_pr__pfet_01v8 ad=0.2 pd=1.4 as=0.2 ps=1.4 w=1 l=0.2
X191 w_32720_10# V_mir2 V_mir2 w_32720_10# sky130_fd_pr__pfet_01v8 ad=0.2 pd=1.4 as=0.2 ps=1.4 w=1 l=0.2
X192 V_TOP m1_35910_n8890# sky130_fd_pr__cap_mim_m3_1 l=2 w=2
X193 V_CMFB_S4 sky130_fd_pr__rf_pnp_05v5_W3p40L3p40_8/Base sky130_fd_pr__rf_pnp_05v5_W3p40L3p40_8/Base sky130_fd_pr__rf_pnp_05v5_W3p40L3p40_8/Base sky130_fd_pr__nfet_01v8 ad=0.2 pd=1.4 as=0.4 ps=2.8 w=1 l=0.15
X194 w_32750_1490# V_TOP ERR_AMP_REF w_32750_1490# sky130_fd_pr__pfet_01v8 ad=0.6 pd=3.4 as=0.6 ps=3.4 w=3 l=0.5
X195 V_CMFB_S4 NFET_GATE_10uA sky130_fd_pr__rf_pnp_05v5_W3p40L3p40_8/Base sky130_fd_pr__rf_pnp_05v5_W3p40L3p40_8/Base sky130_fd_pr__nfet_01v8 ad=0.2 pd=1.4 as=0.2 ps=1.4 w=1 l=0.15
X196 V_TOP m1_35910_n8890# sky130_fd_pr__cap_mim_m3_1 l=2 w=2
X197 V_TOP m1_35910_n8890# sky130_fd_pr__cap_mim_m3_1 l=2 w=2
X198 1st_Vout_2 cap_res2 sky130_fd_pr__cap_mim_m3_1 l=2 w=2
X199 a_32440_n6570# a_32560_n7778# sky130_fd_pr__rf_pnp_05v5_W3p40L3p40_8/Base sky130_fd_pr__res_xhigh_po_0p35 l=4
X200 TAIL_CUR_MIR_BIAS PFET_GATE_10uA w_32630_2620# w_32630_2620# sky130_fd_pr__pfet_01v8 ad=0.2 pd=1.4 as=0.2 ps=1.4 w=1 l=0.15
X201 V_TOP m1_35910_n8890# sky130_fd_pr__cap_mim_m3_1 l=2 w=2
X202 w_32750_1490# V_TOP Vin- w_32750_1490# sky130_fd_pr__pfet_01v8 ad=0.6 pd=3.4 as=0.6 ps=3.4 w=3 l=0.5
.ends

.subckt two_stage_opamp_dummy_magic_24 V_CMFB_S1 V_CMFB_S3 Vb3 Vb2 V_CMFB_S2 V_CMFB_S4
+ VOUT- VOUT+ V_tail_gate V_err_amp_ref V_err_gate Vb1 w_109220_7290# VIN- VIN+ a_109320_2280#
X0 VOUT+ cap_res_Y sky130_fd_pr__cap_mim_m3_1 l=2 w=2
X1 VOUT+ cap_res_Y sky130_fd_pr__cap_mim_m3_1 l=2 w=2
X2 VOUT+ w_109220_7290# w_109220_7290# w_109220_7290# sky130_fd_pr__pfet_01v8 ad=1.2 pd=6.4 as=2.4 ps=12.8 w=6 l=0.15
X3 VOUT- cap_res_X sky130_fd_pr__cap_mim_m3_1 l=2 w=2
X4 VOUT- cap_res_X sky130_fd_pr__cap_mim_m3_1 l=2 w=2
X5 VOUT- cap_res_X sky130_fd_pr__cap_mim_m3_1 l=2 w=2
X6 V_source V_tail_gate a_109320_2280# a_109320_2280# sky130_fd_pr__nfet_01v8 ad=0.5 pd=2.9 as=0.5 ps=2.9 w=2.5 l=0.15
X7 a_118620_3088# V_tot a_109320_2280# sky130_fd_pr__res_xhigh_po_0p35 l=1.75
X8 VD1 VIN- V_source a_109320_2280# sky130_fd_pr__nfet_01v8 ad=0.3 pd=1.9 as=0.3 ps=1.9 w=1.5 l=0.15
X9 w_109220_7290# w_109220_7290# VOUT+ w_109220_7290# sky130_fd_pr__pfet_01v8 ad=2.4 pd=12.8 as=1.2 ps=6.4 w=6 l=0.15
X10 VOUT+ cap_res_Y sky130_fd_pr__cap_mim_m3_1 l=2 w=2
X11 V_CMFB_S3 Y a_109320_2280# w_109220_7290# sky130_fd_pr__pfet_01v8 ad=0.4 pd=2.4 as=0.4 ps=2.4 w=2 l=0.15
X12 VOUT- cap_res_X sky130_fd_pr__cap_mim_m3_1 l=2 w=2
X13 a_109320_2280# V_tail_gate V_source a_109320_2280# sky130_fd_pr__nfet_01v8 ad=0.5 pd=2.9 as=0.5 ps=2.9 w=2.5 l=0.15
X14 VD3 Vb2 X VD3 sky130_fd_pr__pfet_01v8 ad=0.7 pd=3.9 as=0.7 ps=3.9 w=3.5 l=0.2
X15 V_err_mir_p V_err_amp_ref V_err_gate w_109220_7290# sky130_fd_pr__pfet_01v8 ad=0.5 pd=2.9 as=0.5 ps=2.9 w=2.5 l=0.15
X16 err_amp_mir w_109220_7290# w_109220_7290# w_109220_7290# sky130_fd_pr__pfet_01v8 ad=0.5 pd=2.9 as=1 ps=5.8 w=2.5 l=0.15
X17 VOUT+ cap_res_Y sky130_fd_pr__cap_mim_m3_1 l=2 w=2
X18 V_CMFB_S4 Y w_109220_7290# a_109320_2280# sky130_fd_pr__nfet_01v8 ad=0.6 pd=3.4 as=0.6 ps=3.4 w=3 l=0.15
X19 VOUT+ cap_res_Y sky130_fd_pr__cap_mim_m3_1 l=2 w=2
X20 VOUT+ cap_res_Y sky130_fd_pr__cap_mim_m3_1 l=2 w=2
X21 VOUT- X w_109220_7290# w_109220_7290# sky130_fd_pr__pfet_01v8 ad=1.2 pd=6.4 as=1.2 ps=6.4 w=6 l=0.15
X22 VOUT+ cap_res_Y sky130_fd_pr__cap_mim_m3_1 l=2 w=2
X23 a_109320_2280# X V_CMFB_S1 w_109220_7290# sky130_fd_pr__pfet_01v8 ad=0.4 pd=2.4 as=0.4 ps=2.4 w=2 l=0.15
X24 a_109320_2280# a_109320_2280# a_109320_2280# a_109320_2280# sky130_fd_pr__nfet_01v8 ad=1 pd=5.8 as=50.4 ps=284 w=2.5 l=0.15
X25 VOUT+ cap_res_Y sky130_fd_pr__cap_mim_m3_1 l=2 w=2
X26 VOUT+ cap_res_Y sky130_fd_pr__cap_mim_m3_1 l=2 w=2
X27 V_b_2nd_stage a_108810_n784# a_109320_2280# sky130_fd_pr__res_xhigh_po_0p35 l=2.63
X28 w_109220_7290# Vb3 VD3 w_109220_7290# sky130_fd_pr__pfet_01v8 ad=0.7 pd=3.9 as=0.7 ps=3.9 w=3.5 l=0.2
X29 VOUT- cap_res_X sky130_fd_pr__cap_mim_m3_1 l=2 w=2
X30 VOUT- cap_res_X sky130_fd_pr__cap_mim_m3_1 l=2 w=2
X31 V_CMFB_S3 Y a_109320_2280# w_109220_7290# sky130_fd_pr__pfet_01v8 ad=0.4 pd=2.4 as=0.4 ps=2.4 w=2 l=0.15
X32 VOUT+ cap_res_Y sky130_fd_pr__cap_mim_m3_1 l=2 w=2
X33 VOUT- cap_res_X sky130_fd_pr__cap_mim_m3_1 l=2 w=2
X34 w_109220_7290# X V_CMFB_S2 a_109320_2280# sky130_fd_pr__nfet_01v8 ad=0.6 pd=3.4 as=0.6 ps=3.4 w=3 l=0.15
X35 a_109320_2280# a_109320_2280# VD2 a_109320_2280# sky130_fd_pr__nfet_01v8 ad=0.6 pd=3.8 as=0.3 ps=1.9 w=1.5 l=0.15
X36 VOUT- cap_res_X sky130_fd_pr__cap_mim_m3_1 l=2 w=2
X37 VOUT+ cap_res_Y sky130_fd_pr__cap_mim_m3_1 l=2 w=2
X38 V_source V_tail_gate a_109320_2280# a_109320_2280# sky130_fd_pr__nfet_01v8 ad=0.5 pd=2.9 as=0.5 ps=2.9 w=2.5 l=0.15
X39 VOUT+ cap_res_Y sky130_fd_pr__cap_mim_m3_1 l=2 w=2
X40 VOUT- cap_res_X sky130_fd_pr__cap_mim_m3_1 l=2 w=2
X41 Y Vb2 VD4 VD4 sky130_fd_pr__pfet_01v8 ad=0.7 pd=3.9 as=0.7 ps=3.9 w=3.5 l=0.2
X42 VD1 Vb1 X a_109320_2280# sky130_fd_pr__nfet_01v8 ad=0.3 pd=1.9 as=0.3 ps=1.9 w=1.5 l=0.15
X43 VOUT+ cap_res_Y sky130_fd_pr__cap_mim_m3_1 l=2 w=2
X44 a_109320_2280# V_tail_gate V_source a_109320_2280# sky130_fd_pr__nfet_01v8 ad=0.5 pd=2.9 as=0.5 ps=2.9 w=2.5 l=0.15
X45 VOUT+ cap_res_Y sky130_fd_pr__cap_mim_m3_1 l=2 w=2
X46 VOUT+ cap_res_Y sky130_fd_pr__cap_mim_m3_1 l=2 w=2
X47 VOUT+ cap_res_Y sky130_fd_pr__cap_mim_m3_1 l=2 w=2
X48 VOUT+ cap_res_Y sky130_fd_pr__cap_mim_m3_1 l=2 w=2
X49 X Vb2 VD3 VD3 sky130_fd_pr__pfet_01v8 ad=0.7 pd=3.9 as=0.7 ps=3.9 w=3.5 l=0.2
X50 VOUT- cap_res_X sky130_fd_pr__cap_mim_m3_1 l=2 w=2
X51 VOUT+ cap_res_Y sky130_fd_pr__cap_mim_m3_1 l=2 w=2
X52 VOUT- cap_res_X sky130_fd_pr__cap_mim_m3_1 l=2 w=2
X53 VOUT- cap_res_X sky130_fd_pr__cap_mim_m3_1 l=2 w=2
X54 VOUT- cap_res_X sky130_fd_pr__cap_mim_m3_1 l=2 w=2
X55 Y Vb2 VD4 VD4 sky130_fd_pr__pfet_01v8 ad=0.7 pd=3.9 as=0.7 ps=3.9 w=3.5 l=0.2
X56 Y Vb1 VD2 a_109320_2280# sky130_fd_pr__nfet_01v8 ad=0.3 pd=1.9 as=0.3 ps=1.9 w=1.5 l=0.15
X57 VOUT+ cap_res_Y sky130_fd_pr__cap_mim_m3_1 l=2 w=2
X58 VOUT+ cap_res_Y sky130_fd_pr__cap_mim_m3_1 l=2 w=2
X59 VD1 a_109320_2280# a_109320_2280# a_109320_2280# sky130_fd_pr__nfet_01v8 ad=0.3 pd=1.9 as=0.6 ps=3.8 w=1.5 l=0.15