* PEX produced on Thu Aug  7 12:54:54 PM CEST 2025 using /foss/tools/osic-multitool/iic-pex.sh with m=3 and s=1
* NGSPICE file created from bgr_opamp_dummy_magic_18.ext - technology: sky130A

.subckt bgr_opamp_dummy_magic_18 VDDA GNDA VOUT+ VOUT- VIN+ VIN-
X0 VOUT-.t19 two_stage_opamp_dummy_magic_25_0.cap_res_X.t137 sky130_fd_pr__cap_mim_m3_1 l=2 w=2
X1 VDDA.t241 two_stage_opamp_dummy_magic_25_0.Vb3.t8 two_stage_opamp_dummy_magic_25_0.VD4.t25 VDDA.t240 sky130_fd_pr__pfet_01v8 ad=0.7 pd=3.9 as=0.7 ps=3.9 w=3.5 l=0.2
X2 VDDA.t239 two_stage_opamp_dummy_magic_25_0.Vb3.t9 two_stage_opamp_dummy_magic_25_0.VD3.t31 VDDA.t238 sky130_fd_pr__pfet_01v8 ad=0.7 pd=3.9 as=0.7 ps=3.9 w=3.5 l=0.2
X3 VOUT+.t19 two_stage_opamp_dummy_magic_25_0.cap_res_Y.t138 sky130_fd_pr__cap_mim_m3_1 l=2 w=2
X4 two_stage_opamp_dummy_magic_25_0.VD3.t37 two_stage_opamp_dummy_magic_25_0.Vb2.t11 two_stage_opamp_dummy_magic_25_0.X.t15 two_stage_opamp_dummy_magic_25_0.VD3.t36 sky130_fd_pr__pfet_01v8 ad=0.7 pd=3.9 as=0.7 ps=3.9 w=3.5 l=0.2
X5 GNDA.t248 GNDA.t246 two_stage_opamp_dummy_magic_25_0.Vb2.t6 GNDA.t247 sky130_fd_pr__nfet_01v8 ad=0.4 pd=2.8 as=0.2 ps=1.4 w=1 l=0.15
X6 VOUT-.t20 two_stage_opamp_dummy_magic_25_0.cap_res_X.t136 sky130_fd_pr__cap_mim_m3_1 l=2 w=2
X7 two_stage_opamp_dummy_magic_25_0.VD2.t16 VIN+.t0 two_stage_opamp_dummy_magic_25_0.V_source.t13 GNDA.t290 sky130_fd_pr__nfet_01v8 ad=0.3 pd=1.9 as=0.3 ps=1.9 w=1.5 l=0.15
X8 VOUT-.t21 two_stage_opamp_dummy_magic_25_0.cap_res_X.t135 sky130_fd_pr__cap_mim_m3_1 l=2 w=2
X9 bgr_11_0.V_mir2.t11 bgr_11_0.V_mir2.t10 VDDA.t173 VDDA.t172 sky130_fd_pr__pfet_01v8 ad=0.2 pd=1.4 as=0.2 ps=1.4 w=1 l=0.2
X10 two_stage_opamp_dummy_magic_25_0.V_source.t11 two_stage_opamp_dummy_magic_25_0.Vb1.t12 two_stage_opamp_dummy_magic_25_0.Vb1_2.t4 GNDA.t90 sky130_fd_pr__nfet_01v8 ad=0.6 pd=3.8 as=0.6 ps=3.8 w=1.5 l=3
X11 VOUT+.t17 two_stage_opamp_dummy_magic_25_0.Y.t25 VDDA.t387 VDDA.t386 sky130_fd_pr__pfet_01v8 ad=1.2 pd=6.4 as=1.2 ps=6.4 w=6 l=0.15
X12 bgr_11_0.V_TOP.t14 VDDA.t147 sky130_fd_pr__cap_mim_m3_1 l=2 w=2
X13 GNDA.t285 VDDA.t356 VDDA.t358 VDDA.t357 sky130_fd_pr__pfet_01v8 ad=0.4 pd=2.4 as=0.8 ps=4.8 w=2 l=0.15
X14 GNDA.t3 a_6470_28110.t0 GNDA.t2 sky130_fd_pr__res_xhigh_po_0p35 l=6
X15 GNDA.t331 two_stage_opamp_dummy_magic_25_0.Y.t26 two_stage_opamp_dummy_magic_25_0.V_CMFB_S3.t10 VDDA.t413 sky130_fd_pr__pfet_01v8 ad=0.4 pd=2.4 as=0.4 ps=2.4 w=2 l=0.15
X16 VOUT-.t22 two_stage_opamp_dummy_magic_25_0.cap_res_X.t134 sky130_fd_pr__cap_mim_m3_1 l=2 w=2
X17 GNDA.t294 bgr_11_0.NFET_GATE_10uA.t5 two_stage_opamp_dummy_magic_25_0.V_CMFB_S4.t2 GNDA.t293 sky130_fd_pr__nfet_01v8 ad=0.2 pd=1.4 as=0.2 ps=1.4 w=1 l=0.15
X18 VDDA.t121 two_stage_opamp_dummy_magic_25_0.Y.t27 two_stage_opamp_dummy_magic_25_0.V_CMFB_S4.t12 GNDA.t96 sky130_fd_pr__nfet_01v8 ad=0.6 pd=3.4 as=0.6 ps=3.4 w=3 l=0.15
X19 VOUT+.t20 two_stage_opamp_dummy_magic_25_0.cap_res_Y.t137 sky130_fd_pr__cap_mim_m3_1 l=2 w=2
X20 two_stage_opamp_dummy_magic_25_0.Vb2.t5 GNDA.t243 GNDA.t245 GNDA.t244 sky130_fd_pr__nfet_01v8 ad=0.2 pd=1.4 as=0.4 ps=2.8 w=1 l=0.15
X21 VOUT-.t23 two_stage_opamp_dummy_magic_25_0.cap_res_X.t133 sky130_fd_pr__cap_mim_m3_1 l=2 w=2
X22 VDDA.t408 bgr_11_0.PFET_GATE_10uA.t10 two_stage_opamp_dummy_magic_25_0.V_CMFB_S3.t16 VDDA.t407 sky130_fd_pr__pfet_01v8 ad=0.2 pd=1.4 as=0.2 ps=1.4 w=1 l=0.15
X23 bgr_11_0.V_TOP.t15 VDDA.t148 sky130_fd_pr__cap_mim_m3_1 l=2 w=2
X24 two_stage_opamp_dummy_magic_25_0.V_CMFB_S3.t15 VDDA.t353 VDDA.t355 VDDA.t354 sky130_fd_pr__pfet_01v8 ad=0.2 pd=1.4 as=0.4 ps=2.8 w=1 l=0.15
X25 VOUT-.t24 two_stage_opamp_dummy_magic_25_0.cap_res_X.t132 sky130_fd_pr__cap_mim_m3_1 l=2 w=2
X26 bgr_11_0.1st_Vout_1.t6 bgr_11_0.V_mir1.t13 VDDA.t189 VDDA.t188 sky130_fd_pr__pfet_01v8 ad=0.2 pd=1.4 as=0.2 ps=1.4 w=1 l=0.2
X27 VDDA.t237 two_stage_opamp_dummy_magic_25_0.Vb3.t10 two_stage_opamp_dummy_magic_25_0.VD4.t28 VDDA.t236 sky130_fd_pr__pfet_01v8 ad=0.7 pd=3.9 as=0.7 ps=3.9 w=3.5 l=0.2
X28 two_stage_opamp_dummy_magic_25_0.V_err_gate.t4 VDDA.t350 VDDA.t352 VDDA.t351 sky130_fd_pr__pfet_01v8 ad=0.5 pd=2.9 as=1 ps=5.8 w=2.5 l=0.15
X29 two_stage_opamp_dummy_magic_25_0.V_err_p.t2 two_stage_opamp_dummy_magic_25_0.V_tot.t4 two_stage_opamp_dummy_magic_25_0.err_amp_mir.t0 VDDA.t364 sky130_fd_pr__pfet_01v8 ad=0.5 pd=2.9 as=0.5 ps=2.9 w=2.5 l=0.15
X30 two_stage_opamp_dummy_magic_25_0.VD1.t9 two_stage_opamp_dummy_magic_25_0.Vb1.t13 two_stage_opamp_dummy_magic_25_0.X.t18 GNDA.t82 sky130_fd_pr__nfet_01v8 ad=0.3 pd=1.9 as=0.3 ps=1.9 w=1.5 l=0.15
X31 VOUT-.t25 two_stage_opamp_dummy_magic_25_0.cap_res_X.t131 sky130_fd_pr__cap_mim_m3_1 l=2 w=2
X32 a_12070_29568.t0 bgr_11_0.V_CUR_REF_REG.t0 GNDA.t15 sky130_fd_pr__res_xhigh_po_0p35 l=4
X33 two_stage_opamp_dummy_magic_25_0.VD3.t33 VDDA.t347 VDDA.t349 VDDA.t348 sky130_fd_pr__pfet_01v8 ad=0.7 pd=3.9 as=1.4 ps=7.8 w=3.5 l=0.2
X34 two_stage_opamp_dummy_magic_25_0.VD2.t3 two_stage_opamp_dummy_magic_25_0.Vb1.t14 two_stage_opamp_dummy_magic_25_0.Y.t9 GNDA.t83 sky130_fd_pr__nfet_01v8 ad=0.3 pd=1.9 as=0.3 ps=1.9 w=1.5 l=0.15
X35 bgr_11_0.1st_Vout_2.t7 bgr_11_0.cap_res2.t19 sky130_fd_pr__cap_mim_m3_1 l=2 w=2
X36 VOUT-.t1 two_stage_opamp_dummy_magic_25_0.X.t25 VDDA.t28 VDDA.t27 sky130_fd_pr__pfet_01v8 ad=1.2 pd=6.4 as=1.2 ps=6.4 w=6 l=0.15
X37 two_stage_opamp_dummy_magic_25_0.VD1.t8 two_stage_opamp_dummy_magic_25_0.Vb1.t15 two_stage_opamp_dummy_magic_25_0.X.t19 GNDA.t88 sky130_fd_pr__nfet_01v8 ad=0.3 pd=1.9 as=0.3 ps=1.9 w=1.5 l=0.15
X38 VOUT+.t21 two_stage_opamp_dummy_magic_25_0.cap_res_Y.t136 sky130_fd_pr__cap_mim_m3_1 l=2 w=2
X39 VOUT-.t2 two_stage_opamp_dummy_magic_25_0.X.t26 VDDA.t49 VDDA.t48 sky130_fd_pr__pfet_01v8 ad=1.2 pd=6.4 as=1.2 ps=6.4 w=6 l=0.15
X40 GNDA.t122 two_stage_opamp_dummy_magic_25_0.X.t27 two_stage_opamp_dummy_magic_25_0.V_CMFB_S1.t10 VDDA.t53 sky130_fd_pr__pfet_01v8 ad=0.4 pd=2.4 as=0.4 ps=2.4 w=2 l=0.15
X41 two_stage_opamp_dummy_magic_25_0.V_err_gate.t1 bgr_11_0.NFET_GATE_10uA.t6 GNDA.t33 GNDA.t32 sky130_fd_pr__nfet_01v8 ad=0.2 pd=1.4 as=0.2 ps=1.4 w=1 l=0.15
X42 bgr_11_0.V_TOP.t6 bgr_11_0.1st_Vout_1.t7 VDDA.t199 VDDA.t198 sky130_fd_pr__pfet_01v8 ad=0.2 pd=1.4 as=0.2 ps=1.4 w=1 l=0.2
X43 VDDA.t235 two_stage_opamp_dummy_magic_25_0.Vb3.t11 two_stage_opamp_dummy_magic_25_0.VD4.t27 VDDA.t234 sky130_fd_pr__pfet_01v8 ad=0.7 pd=3.9 as=0.7 ps=3.9 w=3.5 l=0.2
X44 GNDA.t242 GNDA.t240 VDDA.t50 GNDA.t241 sky130_fd_pr__nfet_01v8 ad=1.2 pd=6.8 as=0.6 ps=3.4 w=3 l=0.15
X45 VOUT+.t22 two_stage_opamp_dummy_magic_25_0.cap_res_Y.t135 sky130_fd_pr__cap_mim_m3_1 l=2 w=2
X46 VOUT-.t26 two_stage_opamp_dummy_magic_25_0.cap_res_X.t130 sky130_fd_pr__cap_mim_m3_1 l=2 w=2
X47 VOUT-.t27 two_stage_opamp_dummy_magic_25_0.cap_res_X.t129 sky130_fd_pr__cap_mim_m3_1 l=2 w=2
X48 VOUT-.t28 two_stage_opamp_dummy_magic_25_0.cap_res_X.t128 sky130_fd_pr__cap_mim_m3_1 l=2 w=2
X49 VOUT-.t29 two_stage_opamp_dummy_magic_25_0.cap_res_X.t127 sky130_fd_pr__cap_mim_m3_1 l=2 w=2
X50 VDDA.t367 two_stage_opamp_dummy_magic_25_0.X.t28 two_stage_opamp_dummy_magic_25_0.V_CMFB_S2.t12 GNDA.t121 sky130_fd_pr__nfet_01v8 ad=0.6 pd=3.4 as=0.6 ps=3.4 w=3 l=0.15
X51 VOUT-.t30 two_stage_opamp_dummy_magic_25_0.cap_res_X.t126 sky130_fd_pr__cap_mim_m3_1 l=2 w=2
X52 VOUT+.t23 two_stage_opamp_dummy_magic_25_0.cap_res_Y.t134 sky130_fd_pr__cap_mim_m3_1 l=2 w=2
X53 bgr_11_0.START_UP.t3 bgr_11_0.V_TOP.t16 VDDA.t419 VDDA.t418 sky130_fd_pr__pfet_01v8 ad=0.6 pd=3.4 as=0.6 ps=3.4 w=3 l=0.5
X54 VDDA.t346 VDDA.t344 two_stage_opamp_dummy_magic_25_0.V_err_gate.t3 VDDA.t345 sky130_fd_pr__pfet_01v8 ad=1 pd=5.8 as=0.5 ps=2.9 w=2.5 l=0.15
X55 VOUT+.t24 two_stage_opamp_dummy_magic_25_0.cap_res_Y.t133 sky130_fd_pr__cap_mim_m3_1 l=2 w=2
X56 VDDA.t343 VDDA.t341 VDDA.t343 VDDA.t342 sky130_fd_pr__pfet_01v8 ad=0.2 pd=1.4 as=0 ps=0 w=1 l=0.15
X57 two_stage_opamp_dummy_magic_25_0.err_amp_mir.t1 GNDA.t237 GNDA.t239 GNDA.t238 sky130_fd_pr__nfet_01v8 ad=0.5 pd=2.9 as=1 ps=5.8 w=2.5 l=0.15
X58 two_stage_opamp_dummy_magic_25_0.VD1.t16 VIN-.t0 two_stage_opamp_dummy_magic_25_0.V_source.t26 GNDA.t256 sky130_fd_pr__nfet_01v8 ad=0.3 pd=1.9 as=0.3 ps=1.9 w=1.5 l=0.15
X59 VDDA.t156 bgr_11_0.PFET_GATE_10uA.t11 two_stage_opamp_dummy_magic_25_0.V_tail_gate.t10 VDDA.t155 sky130_fd_pr__pfet_01v8 ad=0.2 pd=1.4 as=0.2 ps=1.4 w=1 l=0.15
X60 VOUT+.t25 two_stage_opamp_dummy_magic_25_0.cap_res_Y.t132 sky130_fd_pr__cap_mim_m3_1 l=2 w=2
X61 bgr_11_0.V_TOP.t12 bgr_11_0.1st_Vout_1.t8 VDDA.t369 VDDA.t368 sky130_fd_pr__pfet_01v8 ad=0.2 pd=1.4 as=0.2 ps=1.4 w=1 l=0.2
X62 VOUT+.t26 two_stage_opamp_dummy_magic_25_0.cap_res_Y.t131 sky130_fd_pr__cap_mim_m3_1 l=2 w=2
X63 two_stage_opamp_dummy_magic_25_0.VD3.t17 two_stage_opamp_dummy_magic_25_0.Vb2.t12 two_stage_opamp_dummy_magic_25_0.X.t14 two_stage_opamp_dummy_magic_25_0.VD3.t16 sky130_fd_pr__pfet_01v8 ad=0.7 pd=3.9 as=0.7 ps=3.9 w=3.5 l=0.2
X64 bgr_11_0.1st_Vout_2.t8 bgr_11_0.cap_res2.t18 sky130_fd_pr__cap_mim_m3_1 l=2 w=2
X65 two_stage_opamp_dummy_magic_25_0.VD2.t18 GNDA.t234 GNDA.t236 GNDA.t235 sky130_fd_pr__nfet_01v8 ad=0.3 pd=1.9 as=0.6 ps=3.8 w=1.5 l=0.15
X66 two_stage_opamp_dummy_magic_25_0.Vb1.t5 two_stage_opamp_dummy_magic_25_0.Vb1.t4 two_stage_opamp_dummy_magic_25_0.Vb1_2.t3 GNDA.t21 sky130_fd_pr__nfet_01v8 ad=0.3 pd=1.9 as=0.3 ps=1.9 w=1.5 l=0.15
X67 a_5700_29568.t0 two_stage_opamp_dummy_magic_25_0.V_err_amp_ref.t0 GNDA.t46 sky130_fd_pr__res_xhigh_po_0p35 l=4.28
X68 VOUT+.t27 two_stage_opamp_dummy_magic_25_0.cap_res_Y.t130 sky130_fd_pr__cap_mim_m3_1 l=2 w=2
X69 bgr_11_0.V_TOP.t17 VDDA.t420 sky130_fd_pr__cap_mim_m3_1 l=2 w=2
X70 GNDA.t292 two_stage_opamp_dummy_magic_25_0.V_tail_gate.t12 two_stage_opamp_dummy_magic_25_0.V_source.t33 GNDA.t291 sky130_fd_pr__nfet_01v8 ad=0.5 pd=2.9 as=0.5 ps=2.9 w=2.5 l=0.15
X71 two_stage_opamp_dummy_magic_25_0.X.t13 two_stage_opamp_dummy_magic_25_0.Vb2.t13 two_stage_opamp_dummy_magic_25_0.VD3.t35 two_stage_opamp_dummy_magic_25_0.VD3.t34 sky130_fd_pr__pfet_01v8 ad=0.7 pd=3.9 as=0.7 ps=3.9 w=3.5 l=0.2
X72 VOUT+.t15 VDDA.t338 VDDA.t340 VDDA.t339 sky130_fd_pr__pfet_01v8 ad=1.2 pd=6.4 as=2.4 ps=12.8 w=6 l=0.15
X73 GNDA.t233 GNDA.t231 two_stage_opamp_dummy_magic_25_0.V_tail_gate.t2 GNDA.t232 sky130_fd_pr__nfet_01v8 ad=0.6 pd=3.8 as=0.3 ps=1.9 w=1.5 l=0.15
X74 two_stage_opamp_dummy_magic_25_0.VD1.t12 VIN-.t1 two_stage_opamp_dummy_magic_25_0.V_source.t2 GNDA.t36 sky130_fd_pr__nfet_01v8 ad=0.3 pd=1.9 as=0.3 ps=1.9 w=1.5 l=0.15
X75 VOUT-.t31 two_stage_opamp_dummy_magic_25_0.cap_res_X.t125 sky130_fd_pr__cap_mim_m3_1 l=2 w=2
X76 two_stage_opamp_dummy_magic_25_0.V_CMFB_S1.t14 bgr_11_0.PFET_GATE_10uA.t12 VDDA.t46 VDDA.t45 sky130_fd_pr__pfet_01v8 ad=0.2 pd=1.4 as=0.2 ps=1.4 w=1 l=0.15
X77 VOUT+.t6 two_stage_opamp_dummy_magic_25_0.Y.t28 VDDA.t76 VDDA.t75 sky130_fd_pr__pfet_01v8 ad=1.2 pd=6.4 as=1.2 ps=6.4 w=6 l=0.15
X78 bgr_11_0.1st_Vout_1.t9 bgr_11_0.cap_res1.t20 sky130_fd_pr__cap_mim_m3_1 l=2 w=2
X79 GNDA.t8 two_stage_opamp_dummy_magic_25_0.V_b_2nd_stage.t2 VOUT+.t0 GNDA.t7 sky130_fd_pr__nfet_01v8 ad=1.4 pd=7.4 as=1.4 ps=7.4 w=7 l=0.6
X80 two_stage_opamp_dummy_magic_25_0.VD4.t12 two_stage_opamp_dummy_magic_25_0.Vb2.t14 two_stage_opamp_dummy_magic_25_0.Y.t19 two_stage_opamp_dummy_magic_25_0.VD4.t11 sky130_fd_pr__pfet_01v8 ad=0.7 pd=3.9 as=0.7 ps=3.9 w=3.5 l=0.2
X81 GNDA.t74 two_stage_opamp_dummy_magic_25_0.Y.t29 two_stage_opamp_dummy_magic_25_0.V_CMFB_S3.t9 VDDA.t83 sky130_fd_pr__pfet_01v8 ad=0.4 pd=2.4 as=0.4 ps=2.4 w=2 l=0.15
X82 VOUT-.t32 two_stage_opamp_dummy_magic_25_0.cap_res_X.t124 sky130_fd_pr__cap_mim_m3_1 l=2 w=2
X83 VDDA.t233 two_stage_opamp_dummy_magic_25_0.Vb3.t12 two_stage_opamp_dummy_magic_25_0.VD4.t26 VDDA.t232 sky130_fd_pr__pfet_01v8 ad=0.7 pd=3.9 as=0.7 ps=3.9 w=3.5 l=0.2
X84 VOUT-.t33 two_stage_opamp_dummy_magic_25_0.cap_res_X.t123 sky130_fd_pr__cap_mim_m3_1 l=2 w=2
X85 VOUT-.t34 two_stage_opamp_dummy_magic_25_0.cap_res_X.t122 sky130_fd_pr__cap_mim_m3_1 l=2 w=2
X86 two_stage_opamp_dummy_magic_25_0.V_source.t6 two_stage_opamp_dummy_magic_25_0.V_tail_gate.t13 GNDA.t61 GNDA.t60 sky130_fd_pr__nfet_01v8 ad=0.5 pd=2.9 as=0.5 ps=2.9 w=2.5 l=0.15
X87 VOUT+.t28 two_stage_opamp_dummy_magic_25_0.cap_res_Y.t129 sky130_fd_pr__cap_mim_m3_1 l=2 w=2
X88 bgr_11_0.V_TOP.t13 bgr_11_0.START_UP.t6 bgr_11_0.Vin-.t7 VDDA.t396 sky130_fd_pr__pfet_01v8 ad=0.2 pd=1.4 as=0.2 ps=1.4 w=1 l=0.15
X89 GNDA.t284 VDDA.t421 bgr_11_0.V_p_2.t2 GNDA.t283 sky130_fd_pr__nfet_01v8 ad=1 pd=5.8 as=1 ps=5.8 w=2.5 l=5
X90 VOUT+.t29 two_stage_opamp_dummy_magic_25_0.cap_res_Y.t128 sky130_fd_pr__cap_mim_m3_1 l=2 w=2
X91 VOUT+.t30 two_stage_opamp_dummy_magic_25_0.cap_res_Y.t127 sky130_fd_pr__cap_mim_m3_1 l=2 w=2
X92 VDDA.t337 VDDA.t335 bgr_11_0.V_TOP.t11 VDDA.t336 sky130_fd_pr__pfet_01v8 ad=0.4 pd=2.8 as=0.2 ps=1.4 w=1 l=0.15
X93 VOUT+.t31 two_stage_opamp_dummy_magic_25_0.cap_res_Y.t126 sky130_fd_pr__cap_mim_m3_1 l=2 w=2
X94 bgr_11_0.V_mir1.t12 bgr_11_0.V_mir1.t11 VDDA.t65 VDDA.t64 sky130_fd_pr__pfet_01v8 ad=0.2 pd=1.4 as=0.2 ps=1.4 w=1 l=0.2
X95 two_stage_opamp_dummy_magic_25_0.Vb2_2.t8 two_stage_opamp_dummy_magic_25_0.Vb2_2.t6 two_stage_opamp_dummy_magic_25_0.Vb2_2.t8 two_stage_opamp_dummy_magic_25_0.Vb2_2.t7 sky130_fd_pr__pfet_01v8 ad=0.7 pd=3.9 as=0 ps=0 w=3.5 l=0.2
X96 two_stage_opamp_dummy_magic_25_0.V_p_mir.t1 two_stage_opamp_dummy_magic_25_0.V_tail_gate.t14 GNDA.t267 GNDA.t266 sky130_fd_pr__nfet_01v8 ad=0.5 pd=2.9 as=0.5 ps=2.9 w=2.5 l=0.15
X97 two_stage_opamp_dummy_magic_25_0.VD3.t30 two_stage_opamp_dummy_magic_25_0.Vb3.t13 VDDA.t231 VDDA.t230 sky130_fd_pr__pfet_01v8 ad=0.7 pd=3.9 as=0.7 ps=3.9 w=3.5 l=0.2
X98 bgr_11_0.V_TOP.t10 VDDA.t332 VDDA.t334 VDDA.t333 sky130_fd_pr__pfet_01v8 ad=0.2 pd=1.4 as=0.4 ps=2.8 w=1 l=0.2
X99 two_stage_opamp_dummy_magic_25_0.VD1.t7 two_stage_opamp_dummy_magic_25_0.Vb1.t16 two_stage_opamp_dummy_magic_25_0.X.t22 GNDA.t309 sky130_fd_pr__nfet_01v8 ad=0.3 pd=1.9 as=0.3 ps=1.9 w=1.5 l=0.15
X100 VOUT-.t35 two_stage_opamp_dummy_magic_25_0.cap_res_X.t121 sky130_fd_pr__cap_mim_m3_1 l=2 w=2
X101 GNDA.t230 GNDA.t228 VOUT+.t4 GNDA.t229 sky130_fd_pr__nfet_01v8 ad=2.8 pd=14.8 as=1.4 ps=7.4 w=7 l=0.6
X102 VOUT+.t32 two_stage_opamp_dummy_magic_25_0.cap_res_Y.t125 sky130_fd_pr__cap_mim_m3_1 l=2 w=2
X103 bgr_11_0.V_TOP.t18 VDDA.t391 sky130_fd_pr__cap_mim_m3_1 l=2 w=2
X104 VOUT-.t36 two_stage_opamp_dummy_magic_25_0.cap_res_X.t120 sky130_fd_pr__cap_mim_m3_1 l=2 w=2
X105 GNDA.t296 two_stage_opamp_dummy_magic_25_0.V_tail_gate.t15 two_stage_opamp_dummy_magic_25_0.V_source.t34 GNDA.t199 sky130_fd_pr__nfet_01v8 ad=0.5 pd=2.9 as=0.5 ps=2.9 w=2.5 l=0.15
X106 VOUT-.t37 two_stage_opamp_dummy_magic_25_0.cap_res_X.t119 sky130_fd_pr__cap_mim_m3_1 l=2 w=2
X107 VOUT-.t38 two_stage_opamp_dummy_magic_25_0.cap_res_X.t118 sky130_fd_pr__cap_mim_m3_1 l=2 w=2
X108 VOUT+.t33 two_stage_opamp_dummy_magic_25_0.cap_res_Y.t124 sky130_fd_pr__cap_mim_m3_1 l=2 w=2
X109 VDDA.t331 VDDA.t329 GNDA.t278 VDDA.t330 sky130_fd_pr__pfet_01v8 ad=0.8 pd=4.8 as=0.4 ps=2.4 w=2 l=0.15
X110 two_stage_opamp_dummy_magic_25_0.VD2.t0 two_stage_opamp_dummy_magic_25_0.Vb1.t17 two_stage_opamp_dummy_magic_25_0.Y.t8 GNDA.t22 sky130_fd_pr__nfet_01v8 ad=0.3 pd=1.9 as=0.3 ps=1.9 w=1.5 l=0.15
X111 VOUT-.t39 two_stage_opamp_dummy_magic_25_0.cap_res_X.t117 sky130_fd_pr__cap_mim_m3_1 l=2 w=2
X112 VOUT-.t40 two_stage_opamp_dummy_magic_25_0.cap_res_X.t116 sky130_fd_pr__cap_mim_m3_1 l=2 w=2
X113 VOUT-.t7 two_stage_opamp_dummy_magic_25_0.X.t29 VDDA.t100 VDDA.t99 sky130_fd_pr__pfet_01v8 ad=1.2 pd=6.4 as=1.2 ps=6.4 w=6 l=0.15
X114 VDDA.t393 bgr_11_0.V_TOP.t19 bgr_11_0.Vin+.t5 VDDA.t392 sky130_fd_pr__pfet_01v8 ad=0.6 pd=3.4 as=0.6 ps=3.4 w=3 l=0.5
X115 two_stage_opamp_dummy_magic_25_0.VD1.t6 two_stage_opamp_dummy_magic_25_0.Vb1.t18 two_stage_opamp_dummy_magic_25_0.X.t20 GNDA.t130 sky130_fd_pr__nfet_01v8 ad=0.3 pd=1.9 as=0.3 ps=1.9 w=1.5 l=0.15
X116 VOUT-.t41 two_stage_opamp_dummy_magic_25_0.cap_res_X.t115 sky130_fd_pr__cap_mim_m3_1 l=2 w=2
X117 GNDA.t116 two_stage_opamp_dummy_magic_25_0.X.t30 two_stage_opamp_dummy_magic_25_0.V_CMFB_S1.t9 VDDA.t403 sky130_fd_pr__pfet_01v8 ad=0.4 pd=2.4 as=0.4 ps=2.4 w=2 l=0.15
X118 VDDA.t16 bgr_11_0.V_mir2.t13 bgr_11_0.1st_Vout_2.t5 VDDA.t15 sky130_fd_pr__pfet_01v8 ad=0.2 pd=1.4 as=0.2 ps=1.4 w=1 l=0.2
X119 VOUT+.t34 two_stage_opamp_dummy_magic_25_0.cap_res_Y.t123 sky130_fd_pr__cap_mim_m3_1 l=2 w=2
X120 VOUT+.t35 two_stage_opamp_dummy_magic_25_0.cap_res_Y.t122 sky130_fd_pr__cap_mim_m3_1 l=2 w=2
X121 VOUT+.t36 two_stage_opamp_dummy_magic_25_0.cap_res_Y.t121 sky130_fd_pr__cap_mim_m3_1 l=2 w=2
X122 VOUT+.t37 two_stage_opamp_dummy_magic_25_0.cap_res_Y.t120 sky130_fd_pr__cap_mim_m3_1 l=2 w=2
X123 bgr_11_0.1st_Vout_2.t9 bgr_11_0.cap_res2.t17 sky130_fd_pr__cap_mim_m3_1 l=2 w=2
X124 bgr_11_0.V_mir1.t10 bgr_11_0.V_mir1.t9 VDDA.t1 VDDA.t0 sky130_fd_pr__pfet_01v8 ad=0.2 pd=1.4 as=0.2 ps=1.4 w=1 l=0.2
X125 two_stage_opamp_dummy_magic_25_0.Y.t24 two_stage_opamp_dummy_magic_25_0.VD4.t32 two_stage_opamp_dummy_magic_25_0.VD4.t34 two_stage_opamp_dummy_magic_25_0.VD4.t33 sky130_fd_pr__pfet_01v8 ad=0.7 pd=3.9 as=1.4 ps=7.8 w=3.5 l=0.2
X126 VDDA.t30 GNDA.t225 GNDA.t227 GNDA.t226 sky130_fd_pr__nfet_01v8 ad=0.6 pd=3.4 as=1.2 ps=6.8 w=3 l=0.15
X127 two_stage_opamp_dummy_magic_25_0.VD4.t19 two_stage_opamp_dummy_magic_25_0.Vb3.t14 VDDA.t229 VDDA.t228 sky130_fd_pr__pfet_01v8 ad=0.7 pd=3.9 as=0.7 ps=3.9 w=3.5 l=0.2
X128 two_stage_opamp_dummy_magic_25_0.V_err_mir_p.t1 two_stage_opamp_dummy_magic_25_0.V_err_gate.t6 VDDA.t398 VDDA.t397 sky130_fd_pr__pfet_01v8 ad=0.5 pd=2.9 as=0.5 ps=2.9 w=2.5 l=0.15
X129 VOUT+.t38 two_stage_opamp_dummy_magic_25_0.cap_res_Y.t119 sky130_fd_pr__cap_mim_m3_1 l=2 w=2
X130 two_stage_opamp_dummy_magic_25_0.X.t12 two_stage_opamp_dummy_magic_25_0.Vb2.t15 two_stage_opamp_dummy_magic_25_0.VD3.t21 two_stage_opamp_dummy_magic_25_0.VD3.t20 sky130_fd_pr__pfet_01v8 ad=0.7 pd=3.9 as=0.7 ps=3.9 w=3.5 l=0.2
X131 two_stage_opamp_dummy_magic_25_0.VD3.t29 two_stage_opamp_dummy_magic_25_0.Vb3.t15 VDDA.t227 VDDA.t226 sky130_fd_pr__pfet_01v8 ad=0.7 pd=3.9 as=0.7 ps=3.9 w=3.5 l=0.2
X132 two_stage_opamp_dummy_magic_25_0.VD1.t17 VIN-.t2 two_stage_opamp_dummy_magic_25_0.V_source.t27 GNDA.t259 sky130_fd_pr__nfet_01v8 ad=0.3 pd=1.9 as=0.3 ps=1.9 w=1.5 l=0.15
X133 bgr_11_0.PFET_GATE_10uA.t8 VDDA.t326 VDDA.t328 VDDA.t327 sky130_fd_pr__pfet_01v8 ad=0.2 pd=1.4 as=0.4 ps=2.8 w=1 l=0.2
X134 VOUT-.t42 two_stage_opamp_dummy_magic_25_0.cap_res_X.t114 sky130_fd_pr__cap_mim_m3_1 l=2 w=2
X135 VOUT+.t39 two_stage_opamp_dummy_magic_25_0.cap_res_Y.t118 sky130_fd_pr__cap_mim_m3_1 l=2 w=2
X136 VOUT-.t43 two_stage_opamp_dummy_magic_25_0.cap_res_X.t113 sky130_fd_pr__cap_mim_m3_1 l=2 w=2
X137 VOUT+.t40 two_stage_opamp_dummy_magic_25_0.cap_res_Y.t117 sky130_fd_pr__cap_mim_m3_1 l=2 w=2
X138 VOUT+.t41 two_stage_opamp_dummy_magic_25_0.cap_res_Y.t116 sky130_fd_pr__cap_mim_m3_1 l=2 w=2
X139 a_6350_29718.t1 bgr_11_0.Vin+.t1 GNDA.t2 sky130_fd_pr__res_xhigh_po_0p35 l=6
X140 two_stage_opamp_dummy_magic_25_0.V_err_amp_ref.t6 bgr_11_0.V_TOP.t20 VDDA.t415 VDDA.t414 sky130_fd_pr__pfet_01v8 ad=0.6 pd=3.4 as=0.6 ps=3.4 w=3 l=0.5
X141 VOUT-.t44 two_stage_opamp_dummy_magic_25_0.cap_res_X.t112 sky130_fd_pr__cap_mim_m3_1 l=2 w=2
X142 VOUT-.t45 two_stage_opamp_dummy_magic_25_0.cap_res_X.t111 sky130_fd_pr__cap_mim_m3_1 l=2 w=2
X143 two_stage_opamp_dummy_magic_25_0.Vb1.t1 two_stage_opamp_dummy_magic_25_0.Vb1.t0 two_stage_opamp_dummy_magic_25_0.Vb1_2.t2 GNDA.t54 sky130_fd_pr__nfet_01v8 ad=0.3 pd=1.9 as=0.3 ps=1.9 w=1.5 l=0.15
X144 two_stage_opamp_dummy_magic_25_0.VD1.t13 VIN-.t3 two_stage_opamp_dummy_magic_25_0.V_source.t9 GNDA.t77 sky130_fd_pr__nfet_01v8 ad=0.3 pd=1.9 as=0.3 ps=1.9 w=1.5 l=0.15
X145 VOUT+.t2 two_stage_opamp_dummy_magic_25_0.Y.t30 VDDA.t36 VDDA.t35 sky130_fd_pr__pfet_01v8 ad=1.2 pd=6.4 as=1.2 ps=6.4 w=6 l=0.15
X146 VOUT+.t42 two_stage_opamp_dummy_magic_25_0.cap_res_Y.t115 sky130_fd_pr__cap_mim_m3_1 l=2 w=2
X147 VOUT+.t43 two_stage_opamp_dummy_magic_25_0.cap_res_Y.t114 sky130_fd_pr__cap_mim_m3_1 l=2 w=2
X148 VOUT-.t46 two_stage_opamp_dummy_magic_25_0.cap_res_X.t110 sky130_fd_pr__cap_mim_m3_1 l=2 w=2
X149 VOUT+.t44 two_stage_opamp_dummy_magic_25_0.cap_res_Y.t113 sky130_fd_pr__cap_mim_m3_1 l=2 w=2
X150 bgr_11_0.1st_Vout_2.t10 bgr_11_0.cap_res2.t16 sky130_fd_pr__cap_mim_m3_1 l=2 w=2
X151 VDDA.t301 VDDA.t299 two_stage_opamp_dummy_magic_25_0.Vb1.t11 VDDA.t300 sky130_fd_pr__pfet_01v8 ad=0.8 pd=4.8 as=0.4 ps=2.4 w=2 l=0.15
X152 VDDA.t44 bgr_11_0.PFET_GATE_10uA.t13 two_stage_opamp_dummy_magic_25_0.V_tail_gate.t9 VDDA.t43 sky130_fd_pr__pfet_01v8 ad=0.2 pd=1.4 as=0.2 ps=1.4 w=1 l=0.15
X153 GNDA.t287 bgr_11_0.NFET_GATE_10uA.t7 two_stage_opamp_dummy_magic_25_0.Vb3.t5 GNDA.t286 sky130_fd_pr__nfet_01v8 ad=0.2 pd=1.4 as=0.2 ps=1.4 w=1 l=0.15
X154 two_stage_opamp_dummy_magic_25_0.V_tail_gate.t8 bgr_11_0.PFET_GATE_10uA.t14 VDDA.t371 VDDA.t370 sky130_fd_pr__pfet_01v8 ad=0.2 pd=1.4 as=0.2 ps=1.4 w=1 l=0.15
X155 a_13840_3288.t0 two_stage_opamp_dummy_magic_25_0.V_tot.t2 GNDA.t70 sky130_fd_pr__res_xhigh_po_0p35 l=1.75
X156 VDDA.t123 bgr_11_0.V_mir2.t8 bgr_11_0.V_mir2.t9 VDDA.t122 sky130_fd_pr__pfet_01v8 ad=0.2 pd=1.4 as=0.2 ps=1.4 w=1 l=0.2
X157 VOUT+.t45 two_stage_opamp_dummy_magic_25_0.cap_res_Y.t112 sky130_fd_pr__cap_mim_m3_1 l=2 w=2
X158 GNDA.t224 GNDA.t222 two_stage_opamp_dummy_magic_25_0.VD1.t15 GNDA.t223 sky130_fd_pr__nfet_01v8 ad=0.6 pd=3.8 as=0.3 ps=1.9 w=1.5 l=0.15
X159 bgr_11_0.1st_Vout_2.t11 bgr_11_0.cap_res2.t15 sky130_fd_pr__cap_mim_m3_1 l=2 w=2
X160 GNDA.t221 GNDA.t219 two_stage_opamp_dummy_magic_25_0.V_source.t24 GNDA.t220 sky130_fd_pr__nfet_01v8 ad=1 pd=5.8 as=0.5 ps=2.9 w=2.5 l=0.15
X161 GNDA.t134 two_stage_opamp_dummy_magic_25_0.V_tail_gate.t16 two_stage_opamp_dummy_magic_25_0.V_source.t22 GNDA.t133 sky130_fd_pr__nfet_01v8 ad=0.5 pd=2.9 as=0.5 ps=2.9 w=2.5 l=0.15
X162 VOUT-.t47 two_stage_opamp_dummy_magic_25_0.cap_res_X.t109 sky130_fd_pr__cap_mim_m3_1 l=2 w=2
X163 VOUT-.t48 two_stage_opamp_dummy_magic_25_0.cap_res_X.t108 sky130_fd_pr__cap_mim_m3_1 l=2 w=2
X164 VOUT-.t49 two_stage_opamp_dummy_magic_25_0.cap_res_X.t107 sky130_fd_pr__cap_mim_m3_1 l=2 w=2
X165 VOUT+.t46 two_stage_opamp_dummy_magic_25_0.cap_res_Y.t111 sky130_fd_pr__cap_mim_m3_1 l=2 w=2
X166 VDDA.t417 bgr_11_0.V_TOP.t21 bgr_11_0.START_UP.t2 VDDA.t416 sky130_fd_pr__pfet_01v8 ad=0.6 pd=3.4 as=0.6 ps=3.4 w=3 l=0.5
X167 VOUT+.t47 two_stage_opamp_dummy_magic_25_0.cap_res_Y.t110 sky130_fd_pr__cap_mim_m3_1 l=2 w=2
X168 bgr_11_0.Vin-.t4 bgr_11_0.V_TOP.t22 VDDA.t127 VDDA.t126 sky130_fd_pr__pfet_01v8 ad=0.6 pd=3.4 as=0.6 ps=3.4 w=3 l=0.5
X169 VOUT+.t48 two_stage_opamp_dummy_magic_25_0.cap_res_Y.t109 sky130_fd_pr__cap_mim_m3_1 l=2 w=2
X170 VDDA.t225 two_stage_opamp_dummy_magic_25_0.Vb3.t16 two_stage_opamp_dummy_magic_25_0.VD3.t28 VDDA.t224 sky130_fd_pr__pfet_01v8 ad=0.7 pd=3.9 as=0.7 ps=3.9 w=3.5 l=0.2
X171 bgr_11_0.1st_Vout_1.t10 bgr_11_0.cap_res1.t19 sky130_fd_pr__cap_mim_m3_1 l=2 w=2
X172 GNDA.t218 GNDA.t216 two_stage_opamp_dummy_magic_25_0.VD2.t17 GNDA.t217 sky130_fd_pr__nfet_01v8 ad=0.6 pd=3.8 as=0.3 ps=1.9 w=1.5 l=0.15
X173 VOUT+.t49 two_stage_opamp_dummy_magic_25_0.cap_res_Y.t108 sky130_fd_pr__cap_mim_m3_1 l=2 w=2
X174 two_stage_opamp_dummy_magic_25_0.V_source.t30 two_stage_opamp_dummy_magic_25_0.V_tail_gate.t17 GNDA.t270 GNDA.t232 sky130_fd_pr__nfet_01v8 ad=0.5 pd=2.9 as=0.5 ps=2.9 w=2.5 l=0.15
X175 VOUT-.t50 two_stage_opamp_dummy_magic_25_0.cap_res_X.t106 sky130_fd_pr__cap_mim_m3_1 l=2 w=2
X176 VDDA.t325 VDDA.t323 VOUT+.t14 VDDA.t324 sky130_fd_pr__pfet_01v8 ad=2.4 pd=12.8 as=1.2 ps=6.4 w=6 l=0.15
X177 VOUT+.t50 two_stage_opamp_dummy_magic_25_0.cap_res_Y.t107 sky130_fd_pr__cap_mim_m3_1 l=2 w=2
X178 VOUT+.t9 GNDA.t213 GNDA.t215 GNDA.t214 sky130_fd_pr__nfet_01v8 ad=1.4 pd=7.4 as=2.8 ps=14.8 w=7 l=0.6
X179 two_stage_opamp_dummy_magic_25_0.Y.t18 two_stage_opamp_dummy_magic_25_0.Vb2.t16 two_stage_opamp_dummy_magic_25_0.VD4.t14 two_stage_opamp_dummy_magic_25_0.VD4.t13 sky130_fd_pr__pfet_01v8 ad=0.7 pd=3.9 as=0.7 ps=3.9 w=3.5 l=0.2
X180 VOUT+.t51 two_stage_opamp_dummy_magic_25_0.cap_res_Y.t106 sky130_fd_pr__cap_mim_m3_1 l=2 w=2
X181 VOUT+.t52 two_stage_opamp_dummy_magic_25_0.cap_res_Y.t105 sky130_fd_pr__cap_mim_m3_1 l=2 w=2
X182 bgr_11_0.1st_Vout_1.t11 bgr_11_0.cap_res1.t18 sky130_fd_pr__cap_mim_m3_1 l=2 w=2
X183 bgr_11_0.1st_Vout_2.t6 bgr_11_0.V_CUR_REF_REG.t3 bgr_11_0.V_p_2.t0 GNDA.t26 sky130_fd_pr__nfet_01v8 ad=1 pd=5.8 as=0.5 ps=2.9 w=2.5 l=0.2
X184 two_stage_opamp_dummy_magic_25_0.VD4.t22 two_stage_opamp_dummy_magic_25_0.Vb3.t17 VDDA.t223 VDDA.t222 sky130_fd_pr__pfet_01v8 ad=0.7 pd=3.9 as=0.7 ps=3.9 w=3.5 l=0.2
X185 VOUT+.t53 two_stage_opamp_dummy_magic_25_0.cap_res_Y.t104 sky130_fd_pr__cap_mim_m3_1 l=2 w=2
X186 VOUT+.t54 two_stage_opamp_dummy_magic_25_0.cap_res_Y.t103 sky130_fd_pr__cap_mim_m3_1 l=2 w=2
X187 VOUT+.t55 two_stage_opamp_dummy_magic_25_0.cap_res_Y.t102 sky130_fd_pr__cap_mim_m3_1 l=2 w=2
X188 bgr_11_0.START_UP_NFET1.t0 bgr_11_0.START_UP_NFET1 GNDA.t1 GNDA.t0 sky130_fd_pr__nfet_01v8 ad=0.2 pd=1.4 as=0.4 ps=2.8 w=1 l=10
X189 VOUT-.t5 two_stage_opamp_dummy_magic_25_0.X.t31 VDDA.t87 VDDA.t86 sky130_fd_pr__pfet_01v8 ad=1.2 pd=6.4 as=1.2 ps=6.4 w=6 l=0.15
X190 two_stage_opamp_dummy_magic_25_0.Vb2_Vb3.t6 two_stage_opamp_dummy_magic_25_0.Vb2_Vb3.t3 two_stage_opamp_dummy_magic_25_0.Vb2_Vb3.t5 two_stage_opamp_dummy_magic_25_0.Vb2_Vb3.t4 sky130_fd_pr__pfet_01v8 ad=1.4 pd=7.8 as=0 ps=0 w=3.5 l=0.2
X191 two_stage_opamp_dummy_magic_25_0.VD1.t5 two_stage_opamp_dummy_magic_25_0.Vb1.t19 two_stage_opamp_dummy_magic_25_0.X.t24 GNDA.t336 sky130_fd_pr__nfet_01v8 ad=0.3 pd=1.9 as=0.3 ps=1.9 w=1.5 l=0.15
X192 VDDA.t187 bgr_11_0.1st_Vout_2.t12 bgr_11_0.PFET_GATE_10uA.t5 VDDA.t186 sky130_fd_pr__pfet_01v8 ad=0.2 pd=1.4 as=0.2 ps=1.4 w=1 l=0.2
X193 GNDA.t277 VDDA.t320 VDDA.t322 VDDA.t321 sky130_fd_pr__pfet_01v8 ad=0.4 pd=2.4 as=0.8 ps=4.8 w=2 l=0.15
X194 VOUT-.t51 two_stage_opamp_dummy_magic_25_0.cap_res_X.t105 sky130_fd_pr__cap_mim_m3_1 l=2 w=2
X195 VOUT+.t56 two_stage_opamp_dummy_magic_25_0.cap_res_Y.t101 sky130_fd_pr__cap_mim_m3_1 l=2 w=2
X196 VOUT-.t52 two_stage_opamp_dummy_magic_25_0.cap_res_X.t104 sky130_fd_pr__cap_mim_m3_1 l=2 w=2
X197 VOUT-.t53 two_stage_opamp_dummy_magic_25_0.cap_res_X.t103 sky130_fd_pr__cap_mim_m3_1 l=2 w=2
X198 VOUT-.t54 two_stage_opamp_dummy_magic_25_0.cap_res_X.t102 sky130_fd_pr__cap_mim_m3_1 l=2 w=2
X199 GNDA.t31 bgr_11_0.NFET_GATE_10uA.t8 two_stage_opamp_dummy_magic_25_0.Vb2.t1 GNDA.t30 sky130_fd_pr__nfet_01v8 ad=0.2 pd=1.4 as=0.2 ps=1.4 w=1 l=0.15
X200 two_stage_opamp_dummy_magic_25_0.X.t11 two_stage_opamp_dummy_magic_25_0.Vb2.t17 two_stage_opamp_dummy_magic_25_0.VD3.t7 two_stage_opamp_dummy_magic_25_0.VD3.t6 sky130_fd_pr__pfet_01v8 ad=0.7 pd=3.9 as=0.7 ps=3.9 w=3.5 l=0.2
X201 VOUT+.t57 two_stage_opamp_dummy_magic_25_0.cap_res_Y.t100 sky130_fd_pr__cap_mim_m3_1 l=2 w=2
X202 two_stage_opamp_dummy_magic_25_0.X.t21 two_stage_opamp_dummy_magic_25_0.Vb1.t20 two_stage_opamp_dummy_magic_25_0.VD1.t4 GNDA.t303 sky130_fd_pr__nfet_01v8 ad=0.3 pd=1.9 as=0.3 ps=1.9 w=1.5 l=0.15
X203 VOUT-.t55 two_stage_opamp_dummy_magic_25_0.cap_res_X.t101 sky130_fd_pr__cap_mim_m3_1 l=2 w=2
X204 VOUT+.t10 two_stage_opamp_dummy_magic_25_0.V_b_2nd_stage.t3 GNDA.t100 GNDA.t99 sky130_fd_pr__nfet_01v8 ad=1.4 pd=7.4 as=1.4 ps=7.4 w=7 l=0.6
X205 VOUT+.t58 two_stage_opamp_dummy_magic_25_0.cap_res_Y.t99 sky130_fd_pr__cap_mim_m3_1 l=2 w=2
X206 VOUT-.t56 two_stage_opamp_dummy_magic_25_0.cap_res_X.t100 sky130_fd_pr__cap_mim_m3_1 l=2 w=2
X207 VOUT+.t59 two_stage_opamp_dummy_magic_25_0.cap_res_Y.t98 sky130_fd_pr__cap_mim_m3_1 l=2 w=2
X208 bgr_11_0.V_TOP.t23 VDDA.t128 sky130_fd_pr__cap_mim_m3_1 l=2 w=2
X209 two_stage_opamp_dummy_magic_25_0.Vb2.t9 bgr_11_0.NFET_GATE_10uA.t9 GNDA.t314 GNDA.t313 sky130_fd_pr__nfet_01v8 ad=0.2 pd=1.4 as=0.2 ps=1.4 w=1 l=0.15
X210 VOUT-.t57 two_stage_opamp_dummy_magic_25_0.cap_res_X.t99 sky130_fd_pr__cap_mim_m3_1 l=2 w=2
X211 bgr_11_0.1st_Vout_1.t12 bgr_11_0.cap_res1.t17 sky130_fd_pr__cap_mim_m3_1 l=2 w=2
X212 bgr_11_0.NFET_GATE_10uA.t3 bgr_11_0.PFET_GATE_10uA.t15 VDDA.t183 VDDA.t182 sky130_fd_pr__pfet_01v8 ad=0.2 pd=1.4 as=0.2 ps=1.4 w=1 l=0.15
X213 two_stage_opamp_dummy_magic_25_0.Vb1.t10 GNDA.t210 GNDA.t212 GNDA.t211 sky130_fd_pr__nfet_01v8 ad=0.3 pd=1.9 as=0.6 ps=3.8 w=1.5 l=0.15
X214 two_stage_opamp_dummy_magic_25_0.Y.t17 two_stage_opamp_dummy_magic_25_0.Vb2.t18 two_stage_opamp_dummy_magic_25_0.VD4.t2 two_stage_opamp_dummy_magic_25_0.VD4.t1 sky130_fd_pr__pfet_01v8 ad=0.7 pd=3.9 as=0.7 ps=3.9 w=3.5 l=0.2
X215 two_stage_opamp_dummy_magic_25_0.Y.t7 two_stage_opamp_dummy_magic_25_0.Vb1.t21 two_stage_opamp_dummy_magic_25_0.VD2.t19 GNDA.t321 sky130_fd_pr__nfet_01v8 ad=0.3 pd=1.9 as=0.3 ps=1.9 w=1.5 l=0.15
X216 VOUT+.t60 two_stage_opamp_dummy_magic_25_0.cap_res_Y.t97 sky130_fd_pr__cap_mim_m3_1 l=2 w=2
X217 two_stage_opamp_dummy_magic_25_0.VD4.t21 two_stage_opamp_dummy_magic_25_0.Vb3.t18 VDDA.t221 VDDA.t220 sky130_fd_pr__pfet_01v8 ad=0.7 pd=3.9 as=0.7 ps=3.9 w=3.5 l=0.2
X218 two_stage_opamp_dummy_magic_25_0.VD1.t14 GNDA.t207 GNDA.t209 GNDA.t208 sky130_fd_pr__nfet_01v8 ad=0.3 pd=1.9 as=0.6 ps=3.8 w=1.5 l=0.15
X219 bgr_11_0.V_TOP.t24 VDDA.t145 sky130_fd_pr__cap_mim_m3_1 l=2 w=2
X220 bgr_11_0.1st_Vout_1.t5 bgr_11_0.V_mir1.t14 VDDA.t70 VDDA.t69 sky130_fd_pr__pfet_01v8 ad=0.2 pd=1.4 as=0.2 ps=1.4 w=1 l=0.2
X221 VOUT-.t58 two_stage_opamp_dummy_magic_25_0.cap_res_X.t98 sky130_fd_pr__cap_mim_m3_1 l=2 w=2
X222 VOUT-.t59 two_stage_opamp_dummy_magic_25_0.cap_res_X.t97 sky130_fd_pr__cap_mim_m3_1 l=2 w=2
X223 VOUT-.t60 two_stage_opamp_dummy_magic_25_0.cap_res_X.t96 sky130_fd_pr__cap_mim_m3_1 l=2 w=2
X224 GNDA.t206 GNDA.t204 VDDA.t129 GNDA.t205 sky130_fd_pr__nfet_01v8 ad=1.2 pd=6.8 as=0.6 ps=3.4 w=3 l=0.15
X225 VDDA.t219 two_stage_opamp_dummy_magic_25_0.Vb3.t19 two_stage_opamp_dummy_magic_25_0.VD3.t27 VDDA.t218 sky130_fd_pr__pfet_01v8 ad=0.7 pd=3.9 as=0.7 ps=3.9 w=3.5 l=0.2
X226 bgr_11_0.NFET_GATE_10uA.t1 bgr_11_0.NFET_GATE_10uA.t0 GNDA.t28 GNDA.t27 sky130_fd_pr__nfet_01v8 ad=0.2 pd=1.4 as=0.2 ps=1.4 w=1 l=0.15