* PEX produced on Wed Aug 20 07:39:19 AM CEST 2025 using /foss/tools/osic-multitool/iic-pex.sh with m=3 and s=1
* NGSPICE file created from bgr_opamp_dummy_magic_17.ext - technology: sky130A

.subckt bgr_opamp_dummy_magic_17 VDDA GNDA VOUT+ VOUT- VIN+ VIN-
X0 VDDA.t211 bgr_11_0.1st_Vout_2.t7 bgr_11_0.PFET_GATE_10uA.t9 VDDA.t210 sky130_fd_pr__pfet_01v8 ad=0.2 pd=1.4 as=0.2 ps=1.4 w=1 l=0.2
X1 VOUT-.t19 two_stage_opamp_dummy_magic_24_0.cap_res_X.t138 sky130_fd_pr__cap_mim_m3_1 l=2 w=2
X2 VOUT+.t19 two_stage_opamp_dummy_magic_24_0.cap_res_Y.t137 sky130_fd_pr__cap_mim_m3_1 l=2 w=2
X3 VDDA.t362 two_stage_opamp_dummy_magic_24_0.Vb3.t8 two_stage_opamp_dummy_magic_24_0.VD4.t26 VDDA.t361 sky130_fd_pr__pfet_01v8 ad=0.7 pd=3.9 as=0.7 ps=3.9 w=3.5 l=0.2
X4 VOUT-.t20 two_stage_opamp_dummy_magic_24_0.cap_res_X.t137 sky130_fd_pr__cap_mim_m3_1 l=2 w=2
X5 VDDA.t108 two_stage_opamp_dummy_magic_24_0.Vb3.t9 two_stage_opamp_dummy_magic_24_0.VD3.t31 VDDA.t107 sky130_fd_pr__pfet_01v8 ad=0.7 pd=3.9 as=0.7 ps=3.9 w=3.5 l=0.2
X6 two_stage_opamp_dummy_magic_24_0.VD2.t9 VIN+.t0 two_stage_opamp_dummy_magic_24_0.V_source.t9 GNDA.t33 sky130_fd_pr__nfet_01v8 ad=0.3 pd=1.9 as=0.3 ps=1.9 w=1.5 l=0.15
X7 GNDA.t160 GNDA.t158 two_stage_opamp_dummy_magic_24_0.Vb2.t3 GNDA.t159 sky130_fd_pr__nfet_01v8 ad=0.4 pd=2.8 as=0.2 ps=1.4 w=1 l=0.15
X8 two_stage_opamp_dummy_magic_24_0.VD3.t7 two_stage_opamp_dummy_magic_24_0.Vb2.t11 two_stage_opamp_dummy_magic_24_0.X.t14 two_stage_opamp_dummy_magic_24_0.VD3.t6 sky130_fd_pr__pfet_01v8 ad=0.7 pd=3.9 as=0.7 ps=3.9 w=3.5 l=0.2
X9 VOUT-.t21 two_stage_opamp_dummy_magic_24_0.cap_res_X.t136 sky130_fd_pr__cap_mim_m3_1 l=2 w=2
X10 two_stage_opamp_dummy_magic_24_0.V_source.t28 two_stage_opamp_dummy_magic_24_0.Vb1.t12 two_stage_opamp_dummy_magic_24_0.Vb1_2.t4 GNDA.t229 sky130_fd_pr__nfet_01v8 ad=0.6 pd=3.8 as=0.6 ps=3.8 w=1.5 l=3
X11 VOUT+.t7 two_stage_opamp_dummy_magic_24_0.Y.t25 VDDA.t150 VDDA.t149 sky130_fd_pr__pfet_01v8 ad=1.2 pd=6.4 as=1.2 ps=6.4 w=6 l=0.15
X12 GNDA.t269 VDDA.t358 VDDA.t360 VDDA.t359 sky130_fd_pr__pfet_01v8 ad=0.4 pd=2.4 as=0.8 ps=4.8 w=2 l=0.15
X13 GNDA.t241 two_stage_opamp_dummy_magic_24_0.Y.t26 two_stage_opamp_dummy_magic_24_0.V_CMFB_S3.t15 VDDA.t160 sky130_fd_pr__pfet_01v8 ad=0.4 pd=2.4 as=0.4 ps=2.4 w=2 l=0.15
X14 VOUT-.t22 two_stage_opamp_dummy_magic_24_0.cap_res_X.t135 sky130_fd_pr__cap_mim_m3_1 l=2 w=2
X15 VDDA.t385 bgr_11_0.V_TOP.t14 two_stage_opamp_dummy_magic_24_0.V_err_amp_ref.t3 VDDA.t384 sky130_fd_pr__pfet_01v8 ad=0.6 pd=3.4 as=0.6 ps=3.4 w=3 l=0.5
X16 bgr_11_0.1st_Vout_1.t7 bgr_11_0.cap_res1.t19 sky130_fd_pr__cap_mim_m3_1 l=2 w=2
X17 VDDA.t148 two_stage_opamp_dummy_magic_24_0.Y.t27 two_stage_opamp_dummy_magic_24_0.V_CMFB_S4.t14 GNDA.t223 sky130_fd_pr__nfet_01v8 ad=0.6 pd=3.4 as=0.6 ps=3.4 w=3 l=0.15
X18 VOUT+.t20 two_stage_opamp_dummy_magic_24_0.cap_res_Y.t136 sky130_fd_pr__cap_mim_m3_1 l=2 w=2
X19 VOUT-.t23 two_stage_opamp_dummy_magic_24_0.cap_res_X.t134 sky130_fd_pr__cap_mim_m3_1 l=2 w=2
X20 GNDA.t47 bgr_11_0.NFET_GATE_10uA.t5 two_stage_opamp_dummy_magic_24_0.V_CMFB_S4.t1 GNDA.t46 sky130_fd_pr__nfet_01v8 ad=0.2 pd=1.4 as=0.2 ps=1.4 w=1 l=0.15
X21 two_stage_opamp_dummy_magic_24_0.VD2.t20 two_stage_opamp_dummy_magic_24_0.Vb1.t13 two_stage_opamp_dummy_magic_24_0.Y.t22 GNDA.t31 sky130_fd_pr__nfet_01v8 ad=0.3 pd=1.9 as=0.3 ps=1.9 w=1.5 l=0.15
X22 bgr_11_0.V_TOP.t15 VDDA.t386 sky130_fd_pr__cap_mim_m3_1 l=2 w=2
X23 two_stage_opamp_dummy_magic_24_0.Vb2.t2 GNDA.t155 GNDA.t157 GNDA.t156 sky130_fd_pr__nfet_01v8 ad=0.2 pd=1.4 as=0.4 ps=2.8 w=1 l=0.15
X24 VOUT-.t24 two_stage_opamp_dummy_magic_24_0.cap_res_X.t133 sky130_fd_pr__cap_mim_m3_1 l=2 w=2
X25 two_stage_opamp_dummy_magic_24_0.V_err_gate.t5 VDDA.t355 VDDA.t357 VDDA.t356 sky130_fd_pr__pfet_01v8 ad=0.5 pd=2.9 as=1 ps=5.8 w=2.5 l=0.15
X26 two_stage_opamp_dummy_magic_24_0.V_source.t18 two_stage_opamp_dummy_magic_24_0.V_tail_gate.t12 GNDA.t52 GNDA.t51 sky130_fd_pr__nfet_01v8 ad=0.5 pd=2.9 as=0.5 ps=2.9 w=2.5 l=0.15
X27 bgr_11_0.START_UP_NFET1.t0 bgr_11_0.START_UP_NFET1 GNDA.t176 GNDA.t175 sky130_fd_pr__nfet_01v8 ad=0.2 pd=1.4 as=0.4 ps=2.8 w=1 l=10
X28 bgr_11_0.1st_Vout_1.t0 bgr_11_0.V_mir1.t13 VDDA.t11 VDDA.t10 sky130_fd_pr__pfet_01v8 ad=0.2 pd=1.4 as=0.2 ps=1.4 w=1 l=0.2
X29 two_stage_opamp_dummy_magic_24_0.V_err_p.t1 two_stage_opamp_dummy_magic_24_0.V_tot.t4 two_stage_opamp_dummy_magic_24_0.err_amp_mir.t3 VDDA.t35 sky130_fd_pr__pfet_01v8 ad=0.5 pd=2.9 as=0.5 ps=2.9 w=2.5 l=0.15
X30 VDDA.t87 two_stage_opamp_dummy_magic_24_0.Vb3.t10 two_stage_opamp_dummy_magic_24_0.VD4.t25 VDDA.t86 sky130_fd_pr__pfet_01v8 ad=0.7 pd=3.9 as=0.7 ps=3.9 w=3.5 l=0.2
X31 VOUT-.t25 two_stage_opamp_dummy_magic_24_0.cap_res_X.t132 sky130_fd_pr__cap_mim_m3_1 l=2 w=2
X32 bgr_11_0.V_TOP.t16 VDDA.t392 sky130_fd_pr__cap_mim_m3_1 l=2 w=2
X33 GNDA.t285 two_stage_opamp_dummy_magic_24_0.V_tail_gate.t13 two_stage_opamp_dummy_magic_24_0.V_source.t39 GNDA.t284 sky130_fd_pr__nfet_01v8 ad=0.5 pd=2.9 as=0.5 ps=2.9 w=2.5 l=0.15
X34 VOUT-.t2 two_stage_opamp_dummy_magic_24_0.X.t25 VDDA.t112 VDDA.t111 sky130_fd_pr__pfet_01v8 ad=1.2 pd=6.4 as=1.2 ps=6.4 w=6 l=0.15
X35 VOUT+.t21 two_stage_opamp_dummy_magic_24_0.cap_res_Y.t135 sky130_fd_pr__cap_mim_m3_1 l=2 w=2
X36 two_stage_opamp_dummy_magic_24_0.VD3.t21 VDDA.t352 VDDA.t354 VDDA.t353 sky130_fd_pr__pfet_01v8 ad=0.7 pd=3.9 as=1.4 ps=7.8 w=3.5 l=0.2
X37 VOUT-.t14 two_stage_opamp_dummy_magic_24_0.X.t26 VDDA.t375 VDDA.t374 sky130_fd_pr__pfet_01v8 ad=1.2 pd=6.4 as=1.2 ps=6.4 w=6 l=0.15
X38 GNDA.t18 two_stage_opamp_dummy_magic_24_0.X.t27 two_stage_opamp_dummy_magic_24_0.V_CMFB_S1.t9 VDDA.t15 sky130_fd_pr__pfet_01v8 ad=0.4 pd=2.4 as=0.4 ps=2.4 w=2 l=0.15
X39 a_6350_30238.t1 bgr_11_0.Vin+.t5 GNDA.t13 sky130_fd_pr__res_xhigh_po_0p35 l=6
X40 GNDA.t154 GNDA.t152 VDDA.t104 GNDA.t153 sky130_fd_pr__nfet_01v8 ad=1.2 pd=6.8 as=0.6 ps=3.4 w=3 l=0.15
X41 bgr_11_0.V_TOP.t17 VDDA.t393 sky130_fd_pr__cap_mim_m3_1 l=2 w=2
X42 two_stage_opamp_dummy_magic_24_0.V_err_gate.t3 bgr_11_0.NFET_GATE_10uA.t6 GNDA.t188 GNDA.t187 sky130_fd_pr__nfet_01v8 ad=0.2 pd=1.4 as=0.2 ps=1.4 w=1 l=0.15
X43 VOUT+.t22 two_stage_opamp_dummy_magic_24_0.cap_res_Y.t134 sky130_fd_pr__cap_mim_m3_1 l=2 w=2
X44 VOUT-.t26 two_stage_opamp_dummy_magic_24_0.cap_res_X.t131 sky130_fd_pr__cap_mim_m3_1 l=2 w=2
X45 VOUT-.t27 two_stage_opamp_dummy_magic_24_0.cap_res_X.t130 sky130_fd_pr__cap_mim_m3_1 l=2 w=2
X46 VDDA.t159 a_6540_22450.t11 a_6540_22450.t12 VDDA.t158 sky130_fd_pr__pfet_01v8 ad=0.2 pd=1.4 as=0.2 ps=1.4 w=1 l=0.2
X47 VOUT-.t28 two_stage_opamp_dummy_magic_24_0.cap_res_X.t129 sky130_fd_pr__cap_mim_m3_1 l=2 w=2
X48 VOUT-.t29 two_stage_opamp_dummy_magic_24_0.cap_res_X.t128 sky130_fd_pr__cap_mim_m3_1 l=2 w=2
X49 VDDA.t81 two_stage_opamp_dummy_magic_24_0.Vb3.t11 two_stage_opamp_dummy_magic_24_0.VD4.t24 VDDA.t80 sky130_fd_pr__pfet_01v8 ad=0.7 pd=3.9 as=0.7 ps=3.9 w=3.5 l=0.2
X50 VDDA.t65 two_stage_opamp_dummy_magic_24_0.X.t28 two_stage_opamp_dummy_magic_24_0.V_CMFB_S2.t9 GNDA.t54 sky130_fd_pr__nfet_01v8 ad=0.6 pd=3.4 as=0.6 ps=3.4 w=3 l=0.15
X51 VOUT-.t30 two_stage_opamp_dummy_magic_24_0.cap_res_X.t127 sky130_fd_pr__cap_mim_m3_1 l=2 w=2
X52 VDDA.t199 bgr_11_0.V_mir1.t11 bgr_11_0.V_mir1.t12 VDDA.t198 sky130_fd_pr__pfet_01v8 ad=0.2 pd=1.4 as=0.2 ps=1.4 w=1 l=0.2
X53 VOUT+.t23 two_stage_opamp_dummy_magic_24_0.cap_res_Y.t133 sky130_fd_pr__cap_mim_m3_1 l=2 w=2
X54 VDDA.t351 VDDA.t349 two_stage_opamp_dummy_magic_24_0.V_err_gate.t4 VDDA.t350 sky130_fd_pr__pfet_01v8 ad=1 pd=5.8 as=0.5 ps=2.9 w=2.5 l=0.15
X55 VOUT+.t24 two_stage_opamp_dummy_magic_24_0.cap_res_Y.t132 sky130_fd_pr__cap_mim_m3_1 l=2 w=2
X56 two_stage_opamp_dummy_magic_24_0.err_amp_mir.t0 GNDA.t150 GNDA.t151 GNDA.t112 sky130_fd_pr__nfet_01v8 ad=0.5 pd=2.9 as=1 ps=5.8 w=2.5 l=0.15
X57 two_stage_opamp_dummy_magic_24_0.VD1.t21 VIN-.t0 two_stage_opamp_dummy_magic_24_0.V_source.t15 GNDA.t34 sky130_fd_pr__nfet_01v8 ad=0.3 pd=1.9 as=0.3 ps=1.9 w=1.5 l=0.15
X58 two_stage_opamp_dummy_magic_24_0.V_CMFB_S3.t3 bgr_11_0.PFET_GATE_10uA.t10 VDDA.t249 VDDA.t248 sky130_fd_pr__pfet_01v8 ad=0.2 pd=1.4 as=0.2 ps=1.4 w=1 l=0.15
X59 VOUT+.t25 two_stage_opamp_dummy_magic_24_0.cap_res_Y.t131 sky130_fd_pr__cap_mim_m3_1 l=2 w=2
X60 VDDA.t247 bgr_11_0.PFET_GATE_10uA.t11 two_stage_opamp_dummy_magic_24_0.V_CMFB_S3.t2 VDDA.t246 sky130_fd_pr__pfet_01v8 ad=0.2 pd=1.4 as=0.2 ps=1.4 w=1 l=0.15
X61 bgr_11_0.V_TOP.t18 VDDA.t58 sky130_fd_pr__cap_mim_m3_1 l=2 w=2
X62 bgr_11_0.cap_res1.t20 bgr_11_0.V_TOP.t6 GNDA.t194 sky130_fd_pr__res_high_po_0p35 l=2.05
X63 VOUT+.t26 two_stage_opamp_dummy_magic_24_0.cap_res_Y.t130 sky130_fd_pr__cap_mim_m3_1 l=2 w=2
X64 two_stage_opamp_dummy_magic_24_0.VD2.t12 GNDA.t148 GNDA.t149 GNDA.t89 sky130_fd_pr__nfet_01v8 ad=0.3 pd=1.9 as=0.6 ps=3.8 w=1.5 l=0.15
X65 two_stage_opamp_dummy_magic_24_0.Vb1.t5 two_stage_opamp_dummy_magic_24_0.Vb1.t4 two_stage_opamp_dummy_magic_24_0.Vb1_2.t3 GNDA.t307 sky130_fd_pr__nfet_01v8 ad=0.3 pd=1.9 as=0.3 ps=1.9 w=1.5 l=0.15
X66 two_stage_opamp_dummy_magic_24_0.VD3.t5 two_stage_opamp_dummy_magic_24_0.Vb2.t12 two_stage_opamp_dummy_magic_24_0.X.t13 two_stage_opamp_dummy_magic_24_0.VD3.t4 sky130_fd_pr__pfet_01v8 ad=0.7 pd=3.9 as=0.7 ps=3.9 w=3.5 l=0.2
X67 VOUT+.t27 two_stage_opamp_dummy_magic_24_0.cap_res_Y.t129 sky130_fd_pr__cap_mim_m3_1 l=2 w=2
X68 VOUT+.t12 VDDA.t346 VDDA.t348 VDDA.t347 sky130_fd_pr__pfet_01v8 ad=1.2 pd=6.4 as=2.4 ps=12.8 w=6 l=0.15
X69 GNDA.t147 GNDA.t146 two_stage_opamp_dummy_magic_24_0.V_tail_gate.t3 GNDA.t86 sky130_fd_pr__nfet_01v8 ad=0.6 pd=3.8 as=0.3 ps=1.9 w=1.5 l=0.15
X70 two_stage_opamp_dummy_magic_24_0.VD1.t20 VIN-.t1 two_stage_opamp_dummy_magic_24_0.V_source.t38 GNDA.t20 sky130_fd_pr__nfet_01v8 ad=0.3 pd=1.9 as=0.3 ps=1.9 w=1.5 l=0.15
X71 VOUT-.t31 two_stage_opamp_dummy_magic_24_0.cap_res_X.t126 sky130_fd_pr__cap_mim_m3_1 l=2 w=2
X72 VOUT+.t18 two_stage_opamp_dummy_magic_24_0.Y.t28 VDDA.t418 VDDA.t417 sky130_fd_pr__pfet_01v8 ad=1.2 pd=6.4 as=1.2 ps=6.4 w=6 l=0.15
X73 two_stage_opamp_dummy_magic_24_0.X.t12 two_stage_opamp_dummy_magic_24_0.Vb2.t13 two_stage_opamp_dummy_magic_24_0.VD3.t3 two_stage_opamp_dummy_magic_24_0.VD3.t2 sky130_fd_pr__pfet_01v8 ad=0.7 pd=3.9 as=0.7 ps=3.9 w=3.5 l=0.2
X74 GNDA.t263 two_stage_opamp_dummy_magic_24_0.V_b_2nd_stage.t2 VOUT+.t10 GNDA.t262 sky130_fd_pr__nfet_01v8 ad=1.4 pd=7.4 as=1.4 ps=7.4 w=7 l=0.6
X75 GNDA.t295 two_stage_opamp_dummy_magic_24_0.Y.t29 two_stage_opamp_dummy_magic_24_0.V_CMFB_S3.t14 VDDA.t404 sky130_fd_pr__pfet_01v8 ad=0.4 pd=2.4 as=0.4 ps=2.4 w=2 l=0.15
X76 VOUT-.t32 two_stage_opamp_dummy_magic_24_0.cap_res_X.t125 sky130_fd_pr__cap_mim_m3_1 l=2 w=2
X77 bgr_11_0.V_TOP.t19 VDDA.t59 sky130_fd_pr__cap_mim_m3_1 l=2 w=2
X78 VOUT-.t33 two_stage_opamp_dummy_magic_24_0.cap_res_X.t124 sky130_fd_pr__cap_mim_m3_1 l=2 w=2
X79 VOUT-.t34 two_stage_opamp_dummy_magic_24_0.cap_res_X.t123 sky130_fd_pr__cap_mim_m3_1 l=2 w=2
X80 bgr_11_0.1st_Vout_2.t8 bgr_11_0.cap_res2.t20 sky130_fd_pr__cap_mim_m3_1 l=2 w=2
X81 VOUT+.t28 two_stage_opamp_dummy_magic_24_0.cap_res_Y.t128 sky130_fd_pr__cap_mim_m3_1 l=2 w=2
X82 GNDA.t62 GNDA.t145 bgr_11_0.sky130_fd_pr__rf_pnp_05v5_W3p40L3p40_25.Emitter.t7 sky130_fd_pr__pnp_05v5_W3p40L3p40
**devattr s=462400,2720
X83 two_stage_opamp_dummy_magic_24_0.VD4.t8 two_stage_opamp_dummy_magic_24_0.Vb2.t14 two_stage_opamp_dummy_magic_24_0.Y.t11 two_stage_opamp_dummy_magic_24_0.VD4.t7 sky130_fd_pr__pfet_01v8 ad=0.7 pd=3.9 as=0.7 ps=3.9 w=3.5 l=0.2
X84 VDDA.t121 two_stage_opamp_dummy_magic_24_0.Vb3.t12 two_stage_opamp_dummy_magic_24_0.VD4.t23 VDDA.t120 sky130_fd_pr__pfet_01v8 ad=0.7 pd=3.9 as=0.7 ps=3.9 w=3.5 l=0.2
X85 VOUT+.t29 two_stage_opamp_dummy_magic_24_0.cap_res_Y.t127 sky130_fd_pr__cap_mim_m3_1 l=2 w=2
X86 VOUT+.t30 two_stage_opamp_dummy_magic_24_0.cap_res_Y.t126 sky130_fd_pr__cap_mim_m3_1 l=2 w=2
X87 VOUT+.t31 two_stage_opamp_dummy_magic_24_0.cap_res_Y.t125 sky130_fd_pr__cap_mim_m3_1 l=2 w=2
X88 two_stage_opamp_dummy_magic_24_0.VD2.t11 two_stage_opamp_dummy_magic_24_0.Vb1.t14 two_stage_opamp_dummy_magic_24_0.Y.t21 GNDA.t30 sky130_fd_pr__nfet_01v8 ad=0.3 pd=1.9 as=0.3 ps=1.9 w=1.5 l=0.15
X89 two_stage_opamp_dummy_magic_24_0.Vb2_2.t8 two_stage_opamp_dummy_magic_24_0.Vb2_2.t6 two_stage_opamp_dummy_magic_24_0.Vb2_2.t8 two_stage_opamp_dummy_magic_24_0.Vb2_2.t7 sky130_fd_pr__pfet_01v8 ad=0.7 pd=3.9 as=0 ps=0 w=3.5 l=0.2
X90 VDDA.t209 bgr_11_0.1st_Vout_2.t9 bgr_11_0.PFET_GATE_10uA.t8 VDDA.t208 sky130_fd_pr__pfet_01v8 ad=0.2 pd=1.4 as=0.2 ps=1.4 w=1 l=0.2
X91 VOUT-.t35 two_stage_opamp_dummy_magic_24_0.cap_res_X.t122 sky130_fd_pr__cap_mim_m3_1 l=2 w=2
X92 two_stage_opamp_dummy_magic_24_0.VD3.t30 two_stage_opamp_dummy_magic_24_0.Vb3.t13 VDDA.t369 VDDA.t368 sky130_fd_pr__pfet_01v8 ad=0.7 pd=3.9 as=0.7 ps=3.9 w=3.5 l=0.2
X93 bgr_11_0.1st_Vout_2.t10 bgr_11_0.cap_res2.t19 sky130_fd_pr__cap_mim_m3_1 l=2 w=2
X94 two_stage_opamp_dummy_magic_24_0.V_tail_gate.t11 bgr_11_0.PFET_GATE_10uA.t12 VDDA.t245 VDDA.t244 sky130_fd_pr__pfet_01v8 ad=0.2 pd=1.4 as=0.2 ps=1.4 w=1 l=0.15
X95 GNDA.t144 GNDA.t142 VOUT+.t8 GNDA.t143 sky130_fd_pr__nfet_01v8 ad=2.8 pd=14.8 as=1.4 ps=7.4 w=7 l=0.6
X96 VOUT+.t32 two_stage_opamp_dummy_magic_24_0.cap_res_Y.t124 sky130_fd_pr__cap_mim_m3_1 l=2 w=2
X97 VOUT-.t36 two_stage_opamp_dummy_magic_24_0.cap_res_X.t121 sky130_fd_pr__cap_mim_m3_1 l=2 w=2
X98 bgr_11_0.sky130_fd_pr__rf_pnp_05v5_W3p40L3p40_25.Emitter.t8 bgr_11_0.Vin+.t4 GNDA.t165 sky130_fd_pr__res_xhigh_po_0p35 l=2.3
X99 VOUT-.t37 two_stage_opamp_dummy_magic_24_0.cap_res_X.t120 sky130_fd_pr__cap_mim_m3_1 l=2 w=2
X100 VOUT-.t38 two_stage_opamp_dummy_magic_24_0.cap_res_X.t119 sky130_fd_pr__cap_mim_m3_1 l=2 w=2
X101 VOUT+.t33 two_stage_opamp_dummy_magic_24_0.cap_res_Y.t123 sky130_fd_pr__cap_mim_m3_1 l=2 w=2
X102 bgr_11_0.1st_Vout_1.t8 bgr_11_0.cap_res1.t18 sky130_fd_pr__cap_mim_m3_1 l=2 w=2
X103 VDDA.t345 VDDA.t343 GNDA.t268 VDDA.t344 sky130_fd_pr__pfet_01v8 ad=0.8 pd=4.8 as=0.4 ps=2.4 w=2 l=0.15
X104 VOUT-.t39 two_stage_opamp_dummy_magic_24_0.cap_res_X.t118 sky130_fd_pr__cap_mim_m3_1 l=2 w=2
X105 VOUT-.t40 two_stage_opamp_dummy_magic_24_0.cap_res_X.t117 sky130_fd_pr__cap_mim_m3_1 l=2 w=2
X106 bgr_11_0.1st_Vout_2.t11 bgr_11_0.cap_res2.t18 sky130_fd_pr__cap_mim_m3_1 l=2 w=2
X107 VOUT-.t3 two_stage_opamp_dummy_magic_24_0.X.t29 VDDA.t135 VDDA.t134 sky130_fd_pr__pfet_01v8 ad=1.2 pd=6.4 as=1.2 ps=6.4 w=6 l=0.15
X108 VOUT-.t41 two_stage_opamp_dummy_magic_24_0.cap_res_X.t116 sky130_fd_pr__cap_mim_m3_1 l=2 w=2
X109 bgr_11_0.V_TOP.t20 VDDA.t181 sky130_fd_pr__cap_mim_m3_1 l=2 w=2
X110 GNDA.t204 two_stage_opamp_dummy_magic_24_0.X.t30 two_stage_opamp_dummy_magic_24_0.V_CMFB_S1.t8 VDDA.t127 sky130_fd_pr__pfet_01v8 ad=0.4 pd=2.4 as=0.4 ps=2.4 w=2 l=0.15
X111 VDDA.t243 bgr_11_0.PFET_GATE_10uA.t13 two_stage_opamp_dummy_magic_24_0.V_CMFB_S1.t14 VDDA.t242 sky130_fd_pr__pfet_01v8 ad=0.2 pd=1.4 as=0.2 ps=1.4 w=1 l=0.15
X112 VOUT+.t34 two_stage_opamp_dummy_magic_24_0.cap_res_Y.t122 sky130_fd_pr__cap_mim_m3_1 l=2 w=2
X113 VOUT+.t35 two_stage_opamp_dummy_magic_24_0.cap_res_Y.t121 sky130_fd_pr__cap_mim_m3_1 l=2 w=2
X114 two_stage_opamp_dummy_magic_24_0.V_CMFB_S1.t16 VDDA.t340 VDDA.t342 VDDA.t341 sky130_fd_pr__pfet_01v8 ad=0.2 pd=1.4 as=0.4 ps=2.8 w=1 l=0.15
X115 two_stage_opamp_dummy_magic_24_0.V_source.t17 two_stage_opamp_dummy_magic_24_0.V_tail_gate.t14 GNDA.t50 GNDA.t49 sky130_fd_pr__nfet_01v8 ad=0.5 pd=2.9 as=0.5 ps=2.9 w=2.5 l=0.15
X116 VDDA.t169 a_6540_22450.t13 bgr_11_0.1st_Vout_2.t5 VDDA.t168 sky130_fd_pr__pfet_01v8 ad=0.2 pd=1.4 as=0.2 ps=1.4 w=1 l=0.2
X117 VOUT+.t36 two_stage_opamp_dummy_magic_24_0.cap_res_Y.t120 sky130_fd_pr__cap_mim_m3_1 l=2 w=2
X118 VOUT+.t37 two_stage_opamp_dummy_magic_24_0.cap_res_Y.t119 sky130_fd_pr__cap_mim_m3_1 l=2 w=2
X119 VDDA.t183 bgr_11_0.V_TOP.t21 two_stage_opamp_dummy_magic_24_0.V_err_amp_ref.t2 VDDA.t182 sky130_fd_pr__pfet_01v8 ad=0.6 pd=3.4 as=0.6 ps=3.4 w=3 l=0.5
X120 VDDA.t84 GNDA.t139 GNDA.t141 GNDA.t140 sky130_fd_pr__nfet_01v8 ad=0.6 pd=3.4 as=1.2 ps=6.8 w=3 l=0.15
X121 two_stage_opamp_dummy_magic_24_0.V_err_mir_p.t3 two_stage_opamp_dummy_magic_24_0.V_err_gate.t6 VDDA.t119 VDDA.t118 sky130_fd_pr__pfet_01v8 ad=0.5 pd=2.9 as=0.5 ps=2.9 w=2.5 l=0.15
X122 VOUT+.t38 two_stage_opamp_dummy_magic_24_0.cap_res_Y.t118 sky130_fd_pr__cap_mim_m3_1 l=2 w=2
X123 two_stage_opamp_dummy_magic_24_0.Y.t24 two_stage_opamp_dummy_magic_24_0.VD4.t30 two_stage_opamp_dummy_magic_24_0.VD4.t32 two_stage_opamp_dummy_magic_24_0.VD4.t31 sky130_fd_pr__pfet_01v8 ad=0.7 pd=3.9 as=1.4 ps=7.8 w=3.5 l=0.2
X124 two_stage_opamp_dummy_magic_24_0.VD1.t19 VIN-.t2 two_stage_opamp_dummy_magic_24_0.V_source.t37 GNDA.t205 sky130_fd_pr__nfet_01v8 ad=0.3 pd=1.9 as=0.3 ps=1.9 w=1.5 l=0.15
X125 GNDA.t6 two_stage_opamp_dummy_magic_24_0.V_tail_gate.t15 two_stage_opamp_dummy_magic_24_0.V_source.t2 GNDA.t5 sky130_fd_pr__nfet_01v8 ad=0.5 pd=2.9 as=0.5 ps=2.9 w=2.5 l=0.15
X126 two_stage_opamp_dummy_magic_24_0.VD4.t22 two_stage_opamp_dummy_magic_24_0.Vb3.t14 VDDA.t75 VDDA.t74 sky130_fd_pr__pfet_01v8 ad=0.7 pd=3.9 as=0.7 ps=3.9 w=3.5 l=0.2
X127 VOUT-.t42 two_stage_opamp_dummy_magic_24_0.cap_res_X.t115 sky130_fd_pr__cap_mim_m3_1 l=2 w=2
X128 two_stage_opamp_dummy_magic_24_0.VD3.t29 two_stage_opamp_dummy_magic_24_0.Vb3.t15 VDDA.t77 VDDA.t76 sky130_fd_pr__pfet_01v8 ad=0.7 pd=3.9 as=0.7 ps=3.9 w=3.5 l=0.2
X129 VOUT+.t39 two_stage_opamp_dummy_magic_24_0.cap_res_Y.t117 sky130_fd_pr__cap_mim_m3_1 l=2 w=2
X130 two_stage_opamp_dummy_magic_24_0.X.t11 two_stage_opamp_dummy_magic_24_0.Vb2.t15 two_stage_opamp_dummy_magic_24_0.VD3.t1 two_stage_opamp_dummy_magic_24_0.VD3.t0 sky130_fd_pr__pfet_01v8 ad=0.7 pd=3.9 as=0.7 ps=3.9 w=3.5 l=0.2
X131 VOUT-.t43 two_stage_opamp_dummy_magic_24_0.cap_res_X.t114 sky130_fd_pr__cap_mim_m3_1 l=2 w=2
X132 VOUT+.t40 two_stage_opamp_dummy_magic_24_0.cap_res_Y.t116 sky130_fd_pr__cap_mim_m3_1 l=2 w=2
X133 two_stage_opamp_dummy_magic_24_0.V_b_2nd_stage.t0 a_13940_n594.t0 GNDA.t167 sky130_fd_pr__res_xhigh_po_0p35 l=2.63
X134 VOUT+.t41 two_stage_opamp_dummy_magic_24_0.cap_res_Y.t115 sky130_fd_pr__cap_mim_m3_1 l=2 w=2
X135 VOUT-.t44 two_stage_opamp_dummy_magic_24_0.cap_res_X.t113 sky130_fd_pr__cap_mim_m3_1 l=2 w=2
X136 GNDA.t162 two_stage_opamp_dummy_magic_24_0.V_tail_gate.t16 two_stage_opamp_dummy_magic_24_0.V_p_mir.t1 GNDA.t161 sky130_fd_pr__nfet_01v8 ad=0.5 pd=2.9 as=0.5 ps=2.9 w=2.5 l=0.15
X137 VOUT-.t45 two_stage_opamp_dummy_magic_24_0.cap_res_X.t112 sky130_fd_pr__cap_mim_m3_1 l=2 w=2
X138 bgr_11_0.1st_Vout_2.t12 bgr_11_0.cap_res2.t17 sky130_fd_pr__cap_mim_m3_1 l=2 w=2
X139 two_stage_opamp_dummy_magic_24_0.Vb1.t7 two_stage_opamp_dummy_magic_24_0.Vb1.t6 two_stage_opamp_dummy_magic_24_0.Vb1_2.t2 GNDA.t193 sky130_fd_pr__nfet_01v8 ad=0.3 pd=1.9 as=0.3 ps=1.9 w=1.5 l=0.15
X140 two_stage_opamp_dummy_magic_24_0.VD1.t18 VIN-.t3 two_stage_opamp_dummy_magic_24_0.V_source.t27 GNDA.t227 sky130_fd_pr__nfet_01v8 ad=0.3 pd=1.9 as=0.3 ps=1.9 w=1.5 l=0.15
X141 bgr_11_0.V_TOP.t22 VDDA.t55 sky130_fd_pr__cap_mim_m3_1 l=2 w=2
X142 VOUT+.t17 two_stage_opamp_dummy_magic_24_0.Y.t30 VDDA.t416 VDDA.t415 sky130_fd_pr__pfet_01v8 ad=1.2 pd=6.4 as=1.2 ps=6.4 w=6 l=0.15
X143 VOUT+.t42 two_stage_opamp_dummy_magic_24_0.cap_res_Y.t114 sky130_fd_pr__cap_mim_m3_1 l=2 w=2
X144 VOUT+.t43 two_stage_opamp_dummy_magic_24_0.cap_res_Y.t113 sky130_fd_pr__cap_mim_m3_1 l=2 w=2
X145 VOUT-.t46 two_stage_opamp_dummy_magic_24_0.cap_res_X.t111 sky130_fd_pr__cap_mim_m3_1 l=2 w=2
X146 two_stage_opamp_dummy_magic_24_0.VD1.t11 two_stage_opamp_dummy_magic_24_0.Vb1.t15 two_stage_opamp_dummy_magic_24_0.X.t16 GNDA.t177 sky130_fd_pr__nfet_01v8 ad=0.3 pd=1.9 as=0.3 ps=1.9 w=1.5 l=0.15
X147 VOUT+.t44 two_stage_opamp_dummy_magic_24_0.cap_res_Y.t112 sky130_fd_pr__cap_mim_m3_1 l=2 w=2
X148 two_stage_opamp_dummy_magic_24_0.V_err_amp_ref.t6 VDDA.t337 VDDA.t339 VDDA.t338 sky130_fd_pr__pfet_01v8 ad=0.6 pd=3.4 as=1.2 ps=6.8 w=3 l=0.5
X149 two_stage_opamp_dummy_magic_24_0.V_source.t31 two_stage_opamp_dummy_magic_24_0.V_tail_gate.t17 GNDA.t246 GNDA.t25 sky130_fd_pr__nfet_01v8 ad=0.5 pd=2.9 as=0.5 ps=2.9 w=2.5 l=0.15
X150 a_13840_3288.t1 two_stage_opamp_dummy_magic_24_0.V_tot.t0 GNDA.t230 sky130_fd_pr__res_xhigh_po_0p35 l=1.75
X151 GNDA.t198 bgr_11_0.NFET_GATE_10uA.t7 two_stage_opamp_dummy_magic_24_0.Vb3.t3 GNDA.t197 sky130_fd_pr__nfet_01v8 ad=0.2 pd=1.4 as=0.2 ps=1.4 w=1 l=0.15
X152 VOUT+.t45 two_stage_opamp_dummy_magic_24_0.cap_res_Y.t111 sky130_fd_pr__cap_mim_m3_1 l=2 w=2
X153 two_stage_opamp_dummy_magic_24_0.VD2.t14 two_stage_opamp_dummy_magic_24_0.Vb1.t16 two_stage_opamp_dummy_magic_24_0.Y.t20 GNDA.t29 sky130_fd_pr__nfet_01v8 ad=0.3 pd=1.9 as=0.3 ps=1.9 w=1.5 l=0.15
X154 GNDA.t138 GNDA.t137 two_stage_opamp_dummy_magic_24_0.VD1.t1 GNDA.t80 sky130_fd_pr__nfet_01v8 ad=0.6 pd=3.8 as=0.3 ps=1.9 w=1.5 l=0.15
X155 GNDA.t171 two_stage_opamp_dummy_magic_24_0.V_tail_gate.t18 two_stage_opamp_dummy_magic_24_0.V_source.t20 GNDA.t170 sky130_fd_pr__nfet_01v8 ad=0.5 pd=2.9 as=0.5 ps=2.9 w=2.5 l=0.15
X156 VDDA.t391 a_6540_22450.t9 a_6540_22450.t10 VDDA.t390 sky130_fd_pr__pfet_01v8 ad=0.2 pd=1.4 as=0.2 ps=1.4 w=1 l=0.2
X157 bgr_11_0.START_UP.t3 bgr_11_0.V_TOP.t23 VDDA.t57 VDDA.t56 sky130_fd_pr__pfet_01v8 ad=0.6 pd=3.4 as=0.6 ps=3.4 w=3 l=0.5
X158 two_stage_opamp_dummy_magic_24_0.VD1.t10 two_stage_opamp_dummy_magic_24_0.Vb1.t17 two_stage_opamp_dummy_magic_24_0.X.t15 GNDA.t172 sky130_fd_pr__nfet_01v8 ad=0.3 pd=1.9 as=0.3 ps=1.9 w=1.5 l=0.15
X159 VOUT-.t47 two_stage_opamp_dummy_magic_24_0.cap_res_X.t110 sky130_fd_pr__cap_mim_m3_1 l=2 w=2
X160 VOUT-.t48 two_stage_opamp_dummy_magic_24_0.cap_res_X.t109 sky130_fd_pr__cap_mim_m3_1 l=2 w=2
X161 VOUT-.t49 two_stage_opamp_dummy_magic_24_0.cap_res_X.t108 sky130_fd_pr__cap_mim_m3_1 l=2 w=2
X162 VOUT+.t46 two_stage_opamp_dummy_magic_24_0.cap_res_Y.t110 sky130_fd_pr__cap_mim_m3_1 l=2 w=2
X163 VOUT+.t47 two_stage_opamp_dummy_magic_24_0.cap_res_Y.t109 sky130_fd_pr__cap_mim_m3_1 l=2 w=2
X164 a_11420_30238.t1 bgr_11_0.Vin-.t7 GNDA.t309 sky130_fd_pr__res_xhigh_po_0p35 l=6
X165 bgr_11_0.V_TOP.t13 VDDA.t334 VDDA.t336 VDDA.t335 sky130_fd_pr__pfet_01v8 ad=0.2 pd=1.4 as=0.45 ps=2.9 w=1 l=0.15
X166 a_11300_30238.t1 a_11950_28880.t1 GNDA.t305 sky130_fd_pr__res_xhigh_po_0p35 l=4
X167 VOUT+.t48 two_stage_opamp_dummy_magic_24_0.cap_res_Y.t108 sky130_fd_pr__cap_mim_m3_1 l=2 w=2
X168 GNDA.t136 GNDA.t135 two_stage_opamp_dummy_magic_24_0.VD2.t19 GNDA.t77 sky130_fd_pr__nfet_01v8 ad=0.6 pd=3.8 as=0.3 ps=1.9 w=1.5 l=0.15
X169 VOUT+.t49 two_stage_opamp_dummy_magic_24_0.cap_res_Y.t107 sky130_fd_pr__cap_mim_m3_1 l=2 w=2
X170 bgr_11_0.V_TOP.t24 VDDA.t139 sky130_fd_pr__cap_mim_m3_1 l=2 w=2
X171 VDDA.t371 two_stage_opamp_dummy_magic_24_0.Vb3.t16 two_stage_opamp_dummy_magic_24_0.VD3.t28 VDDA.t370 sky130_fd_pr__pfet_01v8 ad=0.7 pd=3.9 as=0.7 ps=3.9 w=3.5 l=0.2
X172 VOUT-.t50 two_stage_opamp_dummy_magic_24_0.cap_res_X.t107 sky130_fd_pr__cap_mim_m3_1 l=2 w=2
X173 VDDA.t333 VDDA.t331 VOUT+.t11 VDDA.t332 sky130_fd_pr__pfet_01v8 ad=2.4 pd=12.8 as=1.2 ps=6.4 w=6 l=0.15
X174 VOUT+.t50 two_stage_opamp_dummy_magic_24_0.cap_res_Y.t106 sky130_fd_pr__cap_mim_m3_1 l=2 w=2
X175 VOUT+.t3 GNDA.t132 GNDA.t134 GNDA.t133 sky130_fd_pr__nfet_01v8 ad=1.4 pd=7.4 as=2.8 ps=14.8 w=7 l=0.6
X176 VOUT+.t51 two_stage_opamp_dummy_magic_24_0.cap_res_Y.t105 sky130_fd_pr__cap_mim_m3_1 l=2 w=2
X177 VOUT+.t52 two_stage_opamp_dummy_magic_24_0.cap_res_Y.t104 sky130_fd_pr__cap_mim_m3_1 l=2 w=2
X178 bgr_11_0.Vin+.t3 bgr_11_0.V_TOP.t25 VDDA.t141 VDDA.t140 sky130_fd_pr__pfet_01v8 ad=0.6 pd=3.4 as=0.6 ps=3.4 w=3 l=0.5
X179 VOUT+.t53 two_stage_opamp_dummy_magic_24_0.cap_res_Y.t103 sky130_fd_pr__cap_mim_m3_1 l=2 w=2
X180 VOUT+.t54 two_stage_opamp_dummy_magic_24_0.cap_res_Y.t102 sky130_fd_pr__cap_mim_m3_1 l=2 w=2
X181 VOUT+.t55 two_stage_opamp_dummy_magic_24_0.cap_res_Y.t101 sky130_fd_pr__cap_mim_m3_1 l=2 w=2
X182 VOUT-.t8 two_stage_opamp_dummy_magic_24_0.X.t31 VDDA.t172 VDDA.t171 sky130_fd_pr__pfet_01v8 ad=1.2 pd=6.4 as=1.2 ps=6.4 w=6 l=0.15
X183 VDDA.t197 bgr_11_0.V_mir1.t14 bgr_11_0.1st_Vout_1.t5 VDDA.t196 sky130_fd_pr__pfet_01v8 ad=0.2 pd=1.4 as=0.2 ps=1.4 w=1 l=0.2
X184 two_stage_opamp_dummy_magic_24_0.Vb2_Vb3.t6 two_stage_opamp_dummy_magic_24_0.Vb2_Vb3.t3 two_stage_opamp_dummy_magic_24_0.Vb2_Vb3.t5 two_stage_opamp_dummy_magic_24_0.Vb2_Vb3.t4 sky130_fd_pr__pfet_01v8 ad=1.4 pd=7.8 as=0 ps=0 w=3.5 l=0.2
X185 two_stage_opamp_dummy_magic_24_0.Y.t10 two_stage_opamp_dummy_magic_24_0.Vb2.t16 two_stage_opamp_dummy_magic_24_0.VD4.t3 two_stage_opamp_dummy_magic_24_0.VD4.t2 sky130_fd_pr__pfet_01v8 ad=0.7 pd=3.9 as=0.7 ps=3.9 w=3.5 l=0.2
X186 two_stage_opamp_dummy_magic_24_0.VD4.t21 two_stage_opamp_dummy_magic_24_0.Vb3.t17 VDDA.t4 VDDA.t3 sky130_fd_pr__pfet_01v8 ad=0.7 pd=3.9 as=0.7 ps=3.9 w=3.5 l=0.2
X187 GNDA.t267 VDDA.t328 VDDA.t330 VDDA.t329 sky130_fd_pr__pfet_01v8 ad=0.4 pd=2.4 as=0.8 ps=4.8 w=2 l=0.15
X188 VOUT-.t51 two_stage_opamp_dummy_magic_24_0.cap_res_X.t106 sky130_fd_pr__cap_mim_m3_1 l=2 w=2
X189 VOUT+.t56 two_stage_opamp_dummy_magic_24_0.cap_res_Y.t100 sky130_fd_pr__cap_mim_m3_1 l=2 w=2
X190 VOUT-.t52 two_stage_opamp_dummy_magic_24_0.cap_res_X.t105 sky130_fd_pr__cap_mim_m3_1 l=2 w=2
X191 bgr_11_0.1st_Vout_2.t13 bgr_11_0.cap_res2.t16 sky130_fd_pr__cap_mim_m3_1 l=2 w=2
X192 VDDA.t327 VDDA.t324 VDDA.t326 VDDA.t325 sky130_fd_pr__pfet_01v8 ad=0.8 pd=4.8 as=0 ps=0 w=2 l=0.15
X193 VDDA.t323 VDDA.t320 VDDA.t322 VDDA.t321 sky130_fd_pr__pfet_01v8 ad=0.4 pd=2.8 as=0 ps=0 w=1 l=0.15
X194 VOUT-.t53 two_stage_opamp_dummy_magic_24_0.cap_res_X.t104 sky130_fd_pr__cap_mim_m3_1 l=2 w=2
X195 VOUT-.t54 two_stage_opamp_dummy_magic_24_0.cap_res_X.t103 sky130_fd_pr__cap_mim_m3_1 l=2 w=2
X196 VDDA.t241 bgr_11_0.PFET_GATE_10uA.t14 two_stage_opamp_dummy_magic_24_0.V_tail_gate.t10 VDDA.t240 sky130_fd_pr__pfet_01v8 ad=0.2 pd=1.4 as=0.2 ps=1.4 w=1 l=0.15
X197 VOUT+.t57 two_stage_opamp_dummy_magic_24_0.cap_res_Y.t99 sky130_fd_pr__cap_mim_m3_1 l=2 w=2
X198 VOUT-.t55 two_stage_opamp_dummy_magic_24_0.cap_res_X.t102 sky130_fd_pr__cap_mim_m3_1 l=2 w=2
X199 VOUT+.t9 two_stage_opamp_dummy_magic_24_0.V_b_2nd_stage.t3 GNDA.t257 GNDA.t256 sky130_fd_pr__nfet_01v8 ad=1.4 pd=7.4 as=1.4 ps=7.4 w=7 l=0.6
X200 GNDA.t252 bgr_11_0.NFET_GATE_10uA.t8 two_stage_opamp_dummy_magic_24_0.Vb2.t9 GNDA.t251 sky130_fd_pr__nfet_01v8 ad=0.2 pd=1.4 as=0.2 ps=1.4 w=1 l=0.15
X201 VOUT+.t58 two_stage_opamp_dummy_magic_24_0.cap_res_Y.t98 sky130_fd_pr__cap_mim_m3_1 l=2 w=2
X202 two_stage_opamp_dummy_magic_24_0.X.t10 two_stage_opamp_dummy_magic_24_0.Vb2.t17 two_stage_opamp_dummy_magic_24_0.VD3.t37 two_stage_opamp_dummy_magic_24_0.VD3.t36 sky130_fd_pr__pfet_01v8 ad=0.7 pd=3.9 as=0.7 ps=3.9 w=3.5 l=0.2
X203 VOUT-.t56 two_stage_opamp_dummy_magic_24_0.cap_res_X.t101 sky130_fd_pr__cap_mim_m3_1 l=2 w=2
X204 VOUT+.t59 two_stage_opamp_dummy_magic_24_0.cap_res_Y.t97 sky130_fd_pr__cap_mim_m3_1 l=2 w=2
X205 two_stage_opamp_dummy_magic_24_0.Vb2.t6 bgr_11_0.NFET_GATE_10uA.t9 GNDA.t184 GNDA.t183 sky130_fd_pr__nfet_01v8 ad=0.2 pd=1.4 as=0.2 ps=1.4 w=1 l=0.15
X206 VDDA.t178 bgr_11_0.V_TOP.t26 bgr_11_0.Vin-.t3 VDDA.t177 sky130_fd_pr__pfet_01v8 ad=0.6 pd=3.4 as=0.6 ps=3.4 w=3 l=0.5
X207 VDDA.t319 VDDA.t317 bgr_11_0.V_TOP.t12 VDDA.t318 sky130_fd_pr__pfet_01v8 ad=0.4 pd=2.8 as=0.2 ps=1.4 w=1 l=0.2
X208 VOUT-.t57 two_stage_opamp_dummy_magic_24_0.cap_res_X.t100 sky130_fd_pr__cap_mim_m3_1 l=2 w=2
X209 two_stage_opamp_dummy_magic_24_0.V_source.t0 two_stage_opamp_dummy_magic_24_0.V_tail_gate.t19 GNDA.t2 GNDA.t1 sky130_fd_pr__nfet_01v8 ad=0.5 pd=2.9 as=0.5 ps=2.9 w=2.5 l=0.15
X210 two_stage_opamp_dummy_magic_24_0.Vb1.t1 GNDA.t129 GNDA.t131 GNDA.t130 sky130_fd_pr__nfet_01v8 ad=0.3 pd=1.9 as=0.6 ps=3.8 w=1.5 l=0.15
X211 GNDA.t62 GNDA.t128 bgr_11_0.sky130_fd_pr__rf_pnp_05v5_W3p40L3p40_25.Emitter.t6 sky130_fd_pr__pnp_05v5_W3p40L3p40
**devattr s=462400,2720
X212 VOUT+.t60 two_stage_opamp_dummy_magic_24_0.cap_res_Y.t96 sky130_fd_pr__cap_mim_m3_1 l=2 w=2
X213 two_stage_opamp_dummy_magic_24_0.VD1.t0 GNDA.t126 GNDA.t127 GNDA.t74 sky130_fd_pr__nfet_01v8 ad=0.3 pd=1.9 as=0.6 ps=3.8 w=1.5 l=0.15
X214 two_stage_opamp_dummy_magic_24_0.Y.t9 two_stage_opamp_dummy_magic_24_0.Vb2.t18 two_stage_opamp_dummy_magic_24_0.VD4.t34 two_stage_opamp_dummy_magic_24_0.VD4.t33 sky130_fd_pr__pfet_01v8 ad=0.7 pd=3.9 as=0.7 ps=3.9 w=3.5 l=0.2
X215 two_stage_opamp_dummy_magic_24_0.VD4.t20 two_stage_opamp_dummy_magic_24_0.Vb3.t18 VDDA.t2 VDDA.t1 sky130_fd_pr__pfet_01v8 ad=0.7 pd=3.9 as=0.7 ps=3.9 w=3.5 l=0.2
X216 two_stage_opamp_dummy_magic_24_0.VD1.t9 two_stage_opamp_dummy_magic_24_0.Vb1.t18 two_stage_opamp_dummy_magic_24_0.X.t4 GNDA.t166 sky130_fd_pr__nfet_01v8 ad=0.3 pd=1.9 as=0.3 ps=1.9 w=1.5 l=0.15
X217 bgr_11_0.1st_Vout_1.t9 bgr_11_0.cap_res1.t17 sky130_fd_pr__cap_mim_m3_1 l=2 w=2
X218 GNDA.t186 two_stage_opamp_dummy_magic_24_0.V_tail_gate.t20 two_stage_opamp_dummy_magic_24_0.V_source.t22 GNDA.t185 sky130_fd_pr__nfet_01v8 ad=0.5 pd=2.9 as=0.5 ps=2.9 w=2.5 l=0.15
X219 GNDA.t101 GNDA.t118 bgr_11_0.sky130_fd_pr__rf_pnp_05v5_W3p40L3p40_25.Emitter.t5 sky130_fd_pr__pnp_05v5_W3p40L3p40
**devattr s=462400,2720
X220 VDDA.t189 bgr_11_0.1st_Vout_1.t10 bgr_11_0.V_TOP.t8 VDDA.t188 sky130_fd_pr__pfet_01v8 ad=0.2 pd=1.4 as=0.2 ps=1.4 w=1 l=0.2
X221 VOUT-.t58 two_stage_opamp_dummy_magic_24_0.cap_res_X.t99 sky130_fd_pr__cap_mim_m3_1 l=2 w=2
X222 VOUT-.t59 two_stage_opamp_dummy_magic_24_0.cap_res_X.t98 sky130_fd_pr__cap_mim_m3_1 l=2 w=2
X223 VOUT-.t60 two_stage_opamp_dummy_magic_24_0.cap_res_X.t97 sky130_fd_pr__cap_mim_m3_1 l=2 w=2
X224 bgr_11_0.START_UP.t5 bgr_11_0.START_UP.t4 bgr_11_0.START_UP_NFET1.t0 GNDA.t15 sky130_fd_pr__nfet_01v8 ad=0.4 pd=2.8 as=0.2 ps=1.4 w=1 l=10
X225 GNDA.t125 GNDA.t123 VDDA.t124 GNDA.t124 sky130_fd_pr__nfet_01v8 ad=1.2 pd=6.8 as=0.6 ps=3.4 w=3 l=0.15
X226 VOUT-.t61 two_stage_opamp_dummy_magic_24_0.cap_res_X.t96 sky130_fd_pr__cap_mim_m3_1 l=2 w=2
X227 VDDA.t364 two_stage_opamp_dummy_magic_24_0.Vb3.t19 two_stage_opamp_dummy_magic_24_0.VD3.t27 VDDA.t363 sky130_fd_pr__pfet_01v8 ad=0.7 pd=3.9 as=0.7 ps=3.9 w=3.5 l=0.2
X228 VOUT-.t62 two_stage_opamp_dummy_magic_24_0.cap_res_X.t95 sky130_fd_pr__cap_mim_m3_1 l=2 w=2
X229 GNDA.t122 GNDA.t119 GNDA.t121 GNDA.t120 sky130_fd_pr__nfet_01v8 ad=1 pd=5.8 as=0 ps=0 w=2.5 l=0.15