* PEX produced on Mon Jun 30 03:22:50 AM CEST 2025 using /foss/tools/osic-multitool/iic-pex.sh with m=3 and s=1
* NGSPICE file created from ref_volt_cur_gen_dummy_magic.ext - technology: sky130A

.subckt ref_volt_cur_gen_dummy_magic VB1_CUR_BIAS GNDA ERR_AMP_REF VDDA VB2_CUR_BIAS
+ VB3_CUR_BIAS ERR_AMP_CUR_BIAS V_CMFB_S2 TAIL_CUR_MIR_BIAS V_CMFB_S1 V_CMFB_S4 V_CMFB_S3
X0 VDDA.t213 VDDA.t211 V_CMFB_S1.t5 VDDA.t212 sky130_fd_pr__pfet_01v8 ad=0.4 pd=2.8 as=0.2 ps=1.4 w=1 l=0.5
X1 VDDA.t26 V_TOP.t14 Vin+.t4 VDDA.t25 sky130_fd_pr__pfet_01v8 ad=0.6 pd=3.4 as=0.6 ps=3.4 w=3 l=0.5
X2 GNDA.t110 VDDA.t214 V_p_1.t10 GNDA.t66 sky130_fd_pr__nfet_01v8 ad=0.5 pd=2.9 as=1 ps=5.8 w=2.5 l=5
X3 VDDA.t120 PFET_GATE_10uA.t10 TAIL_CUR_MIR_BIAS.t7 VDDA.t119 sky130_fd_pr__pfet_01v8 ad=0.2 pd=1.4 as=0.2 ps=1.4 w=1 l=0.5
X4 VDDA.t210 VDDA.t208 V_TOP.t13 VDDA.t209 sky130_fd_pr__pfet_01v8 ad=0.4 pd=2.8 as=0.2 ps=1.4 w=1 l=0.2
X5 1st_Vout_1.t11 cap_res1.t20 sky130_fd_pr__cap_mim_m3_1 l=2 w=2
X6 GNDA.t96 GNDA.t94 VB3_CUR_BIAS.t5 GNDA.t95 sky130_fd_pr__nfet_01v8 ad=0.4 pd=2.8 as=0.2 ps=1.4 w=1 l=0.5
X7 1st_Vout_2.t11 cap_res2.t20 sky130_fd_pr__cap_mim_m3_1 l=2 w=2
X8 VDDA.t12 V_TOP.t15 START_UP.t3 VDDA.t11 sky130_fd_pr__pfet_01v8 ad=0.6 pd=3.4 as=0.6 ps=3.4 w=3 l=0.5
X9 V_mir2.t16 V_mir2.t15 VDDA.t22 VDDA.t21 sky130_fd_pr__pfet_01v8 ad=0.2 pd=1.4 as=0.2 ps=1.4 w=1 l=0.2
X10 GNDA.t74 GNDA.t88 Vbe2.t7 sky130_fd_pr__pnp_05v5_W3p40L3p40
**devattr s=462400,2720
X11 GNDA.t30 a_4400_6480.t0 GNDA.t29 sky130_fd_pr__res_xhigh_po_0p35 l=6
X12 VDDA.t5 V_mir2.t13 V_mir2.t14 VDDA.t4 sky130_fd_pr__pfet_01v8 ad=0.2 pd=1.4 as=0.2 ps=1.4 w=1 l=0.2
X13 VB2_CUR_BIAS.t7 NFET_GATE_10uA.t5 GNDA.t28 GNDA.t27 sky130_fd_pr__nfet_01v8 ad=0.2 pd=1.4 as=0.2 ps=1.4 w=1 l=0.5
X14 GNDA.t71 GNDA.t90 Vbe2.t6 sky130_fd_pr__pnp_05v5_W3p40L3p40
**devattr s=462400,2720
X15 a_2792_6360.t1 a_4400_6480.t1 GNDA.t10 sky130_fd_pr__res_xhigh_po_0p35 l=6
X16 1st_Vout_1.t12 cap_res1.t19 sky130_fd_pr__cap_mim_m3_1 l=2 w=2
X17 GNDA.t44 START_UP_NFET1.t0 START_UP_NFET1.t1 GNDA.t43 sky130_fd_pr__nfet_01v8 ad=0.4 pd=2.8 as=0.2 ps=1.4 w=1 l=10
X18 V_TOP.t3 START_UP.t6 Vin-.t7 VDDA.t33 sky130_fd_pr__pfet_01v8 ad=0.2 pd=1.4 as=0.2 ps=1.4 w=1 l=0.15
X19 TAIL_CUR_MIR_BIAS.t6 PFET_GATE_10uA.t11 VDDA.t96 VDDA.t95 sky130_fd_pr__pfet_01v8 ad=0.2 pd=1.4 as=0.2 ps=1.4 w=1 l=0.5
X20 VB1_CUR_BIAS.t1 PFET_GATE_10uA.t12 VDDA.t52 VDDA.t51 sky130_fd_pr__pfet_01v8 ad=0.2 pd=1.4 as=0.2 ps=1.4 w=1 l=0.5
X21 1st_Vout_2.t12 cap_res2.t19 sky130_fd_pr__cap_mim_m3_1 l=2 w=2
X22 GNDA.t68 GNDA.t89 Vbe2.t5 sky130_fd_pr__pnp_05v5_W3p40L3p40
**devattr s=462400,2720
X23 VB2_CUR_BIAS.t6 NFET_GATE_10uA.t6 GNDA.t26 GNDA.t25 sky130_fd_pr__nfet_01v8 ad=0.2 pd=1.4 as=0.2 ps=1.4 w=1 l=0.5
X24 VDDA.t32 V_mir2.t17 1st_Vout_2.t3 VDDA.t31 sky130_fd_pr__pfet_01v8 ad=0.2 pd=1.4 as=0.2 ps=1.4 w=1 l=0.2
X25 1st_Vout_2.t9 V_CUR_REF_REG.t3 V_p_2.t9 GNDA.t59 sky130_fd_pr__nfet_01v8 ad=0.1 pd=0.9 as=0.1 ps=0.9 w=0.5 l=0.2
X26 1st_Vout_1.t13 cap_res1.t18 sky130_fd_pr__cap_mim_m3_1 l=2 w=2
X27 VB2_CUR_BIAS.t5 NFET_GATE_10uA.t7 GNDA.t14 GNDA.t13 sky130_fd_pr__nfet_01v8 ad=0.2 pd=1.4 as=0.2 ps=1.4 w=1 l=0.5
X28 Vin-.t4 V_TOP.t16 VDDA.t84 VDDA.t83 sky130_fd_pr__pfet_01v8 ad=0.6 pd=3.4 as=0.6 ps=3.4 w=3 l=0.5
X29 1st_Vout_2.t13 cap_res2.t18 sky130_fd_pr__cap_mim_m3_1 l=2 w=2
X30 TAIL_CUR_MIR_BIAS.t5 PFET_GATE_10uA.t13 VDDA.t110 VDDA.t109 sky130_fd_pr__pfet_01v8 ad=0.2 pd=1.4 as=0.2 ps=1.4 w=1 l=0.5
X31 VDDA.t207 VDDA.t205 PFET_GATE_10uA.t9 VDDA.t206 sky130_fd_pr__pfet_01v8 ad=0.4 pd=2.8 as=0.2 ps=1.4 w=1 l=0.2
X32 V_TOP.t7 1st_Vout_1.t14 VDDA.t92 VDDA.t91 sky130_fd_pr__pfet_01v8 ad=0.2 pd=1.4 as=0.2 ps=1.4 w=1 l=0.2
X33 1st_Vout_1.t15 cap_res1.t17 sky130_fd_pr__cap_mim_m3_1 l=2 w=2
X34 V_TOP.t12 VDDA.t202 VDDA.t204 VDDA.t203 sky130_fd_pr__pfet_01v8 ad=0.2 pd=1.4 as=0.4 ps=2.8 w=1 l=0.15
X35 ERR_AMP_REF.t4 V_TOP.t17 VDDA.t130 VDDA.t129 sky130_fd_pr__pfet_01v8 ad=0.6 pd=3.4 as=0.6 ps=3.4 w=3 l=0.5
X36 V_TOP.t18 VDDA.t121 sky130_fd_pr__cap_mim_m3_1 l=2 w=2
X37 1st_Vout_2.t14 cap_res2.t17 sky130_fd_pr__cap_mim_m3_1 l=2 w=2
X38 1st_Vout_1.t16 cap_res1.t16 sky130_fd_pr__cap_mim_m3_1 l=2 w=2
X39 NFET_GATE_10uA.t0 GNDA.t91 GNDA.t93 GNDA.t92 sky130_fd_pr__nfet_01v8 ad=0.2 pd=1.4 as=0.4 ps=2.8 w=1 l=0.5
X40 V_mir2.t3 ERR_AMP_REF.t7 V_p_2.t3 GNDA.t7 sky130_fd_pr__nfet_01v8 ad=0.1 pd=0.9 as=0.1 ps=0.9 w=0.5 l=0.2
X41 V_TOP.t19 VDDA.t66 sky130_fd_pr__cap_mim_m3_1 l=2 w=2
X42 GNDA.t87 GNDA.t85 VB2_CUR_BIAS.t1 GNDA.t86 sky130_fd_pr__nfet_01v8 ad=0.4 pd=2.8 as=0.2 ps=1.4 w=1 l=0.5
X43 VDDA.t58 V_mir2.t11 V_mir2.t12 VDDA.t57 sky130_fd_pr__pfet_01v8 ad=0.2 pd=1.4 as=0.2 ps=1.4 w=1 l=0.2
X44 PFET_GATE_10uA.t0 1st_Vout_2.t15 VDDA.t30 VDDA.t29 sky130_fd_pr__pfet_01v8 ad=0.2 pd=1.4 as=0.2 ps=1.4 w=1 l=0.2
X45 1st_Vout_2.t16 cap_res2.t16 sky130_fd_pr__cap_mim_m3_1 l=2 w=2
X46 V_TOP.t20 VDDA.t54 sky130_fd_pr__cap_mim_m3_1 l=2 w=2
X47 GNDA.t20 NFET_GATE_10uA.t8 VB2_CUR_BIAS.t4 GNDA.t19 sky130_fd_pr__nfet_01v8 ad=0.2 pd=1.4 as=0.2 ps=1.4 w=1 l=0.5
X48 VB3_CUR_BIAS.t1 NFET_GATE_10uA.t9 GNDA.t5 GNDA.t4 sky130_fd_pr__nfet_01v8 ad=0.2 pd=1.4 as=0.2 ps=1.4 w=1 l=0.5
X49 VDDA.t123 V_mir1.t17 1st_Vout_1.t4 VDDA.t122 sky130_fd_pr__pfet_01v8 ad=0.2 pd=1.4 as=0.2 ps=1.4 w=1 l=0.2
X50 V_p_1.t6 Vin+.t6 1st_Vout_1.t10 GNDA.t66 sky130_fd_pr__nfet_01v8 ad=0.1 pd=0.9 as=0.2 ps=1.8 w=0.5 l=0.2
X51 V_p_2.t0 ERR_AMP_REF.t8 V_mir2.t0 GNDA.t0 sky130_fd_pr__nfet_01v8 ad=0.1 pd=0.9 as=0.2 ps=1.8 w=0.5 l=0.2
X52 VDDA.t75 PFET_GATE_10uA.t14 TAIL_CUR_MIR_BIAS.t4 VDDA.t74 sky130_fd_pr__pfet_01v8 ad=0.2 pd=1.4 as=0.2 ps=1.4 w=1 l=0.5
X53 VDDA.t158 V_TOP.t21 Vin-.t3 VDDA.t157 sky130_fd_pr__pfet_01v8 ad=0.6 pd=3.4 as=0.6 ps=3.4 w=3 l=0.5
X54 V_TOP.t22 VDDA.t108 sky130_fd_pr__cap_mim_m3_1 l=2 w=2
X55 VDDA.t64 1st_Vout_1.t17 V_TOP.t6 VDDA.t63 sky130_fd_pr__pfet_01v8 ad=0.2 pd=1.4 as=0.2 ps=1.4 w=1 l=0.2
X56 1st_Vout_2.t17 cap_res2.t15 sky130_fd_pr__cap_mim_m3_1 l=2 w=2
X57 VB2_CUR_BIAS.t0 GNDA.t82 GNDA.t84 GNDA.t83 sky130_fd_pr__nfet_01v8 ad=0.2 pd=1.4 as=0.4 ps=2.8 w=1 l=0.5
X58 VDDA.t99 V_TOP.t23 START_UP.t2 VDDA.t98 sky130_fd_pr__pfet_01v8 ad=0.6 pd=3.4 as=0.6 ps=3.4 w=3 l=0.5
X59 V_p_1.t1 Vin-.t8 V_mir1.t16 GNDA.t23 sky130_fd_pr__nfet_01v8 ad=0.1 pd=0.9 as=0.1 ps=0.9 w=0.5 l=0.2
X60 V_TOP.t9 VDDA.t215 GNDA.t109 GNDA.t52 sky130_fd_pr__nfet_01v8 ad=1 pd=5.8 as=0.5 ps=2.9 w=2.5 l=5
X61 V_p_2.t8 V_CUR_REF_REG.t4 1st_Vout_2.t6 GNDA.t38 sky130_fd_pr__nfet_01v8 ad=0.1 pd=0.9 as=0.1 ps=0.9 w=0.5 l=0.2
X62 VDDA.t201 VDDA.t199 ERR_AMP_REF.t6 VDDA.t200 sky130_fd_pr__pfet_01v8 ad=1.2 pd=6.8 as=0.6 ps=3.4 w=3 l=0.5
X63 V_TOP.t24 VDDA.t61 sky130_fd_pr__cap_mim_m3_1 l=2 w=2
X64 GNDA.t74 GNDA.t73 Vbe2.t4 sky130_fd_pr__pnp_05v5_W3p40L3p40
**devattr s=462400,2720
X65 1st_Vout_2.t18 cap_res2.t14 sky130_fd_pr__cap_mim_m3_1 l=2 w=2
X66 GNDA.t71 GNDA.t72 Vbe2.t3 sky130_fd_pr__pnp_05v5_W3p40L3p40
**devattr s=462400,2720
X67 VDDA.t28 1st_Vout_1.t18 V_TOP.t1 VDDA.t27 sky130_fd_pr__pfet_01v8 ad=0.2 pd=1.4 as=0.2 ps=1.4 w=1 l=0.2
X68 V_CMFB_S1.t0 PFET_GATE_10uA.t15 VDDA.t38 VDDA.t37 sky130_fd_pr__pfet_01v8 ad=0.2 pd=1.4 as=0.2 ps=1.4 w=1 l=0.5
X69 1st_Vout_1.t19 cap_res1.t15 sky130_fd_pr__cap_mim_m3_1 l=2 w=2
X70 V_p_1.t5 Vin+.t7 1st_Vout_1.t9 GNDA.t65 sky130_fd_pr__nfet_01v8 ad=0.1 pd=0.9 as=0.1 ps=0.9 w=0.5 l=0.2
X71 GNDA.t58 NFET_GATE_10uA.t10 VB3_CUR_BIAS.t4 GNDA.t57 sky130_fd_pr__nfet_01v8 ad=0.2 pd=1.4 as=0.2 ps=1.4 w=1 l=0.5
X72 VDDA.t40 1st_Vout_1.t20 V_TOP.t4 VDDA.t39 sky130_fd_pr__pfet_01v8 ad=0.2 pd=1.4 as=0.2 ps=1.4 w=1 l=0.2
X73 V_TOP.t25 VDDA.t85 sky130_fd_pr__cap_mim_m3_1 l=2 w=2
X74 V_CMFB_S4.t3 NFET_GATE_10uA.t11 GNDA.t103 GNDA.t102 sky130_fd_pr__nfet_01v8 ad=0.2 pd=1.4 as=0.2 ps=1.4 w=1 l=0.5
X75 V_p_2.t2 ERR_AMP_REF.t9 V_mir2.t2 GNDA.t6 sky130_fd_pr__nfet_01v8 ad=0.1 pd=0.9 as=0.1 ps=0.9 w=0.5 l=0.2
X76 V_TOP.t11 VDDA.t196 VDDA.t198 VDDA.t197 sky130_fd_pr__pfet_01v8 ad=0.2 pd=1.4 as=0.4 ps=2.8 w=1 l=0.2
X77 V_CUR_REF_REG.t1 PFET_GATE_10uA.t16 VDDA.t24 VDDA.t23 sky130_fd_pr__pfet_01v8 ad=0.2 pd=1.4 as=0.2 ps=1.4 w=1 l=0.5
X78 V_mir2.t10 V_mir2.t9 VDDA.t125 VDDA.t124 sky130_fd_pr__pfet_01v8 ad=0.2 pd=1.4 as=0.2 ps=1.4 w=1 l=0.2
X79 GNDA.t108 VDDA.t216 PFET_GATE_10uA.t7 GNDA.t0 sky130_fd_pr__nfet_01v8 ad=0.5 pd=2.9 as=1 ps=5.8 w=2.5 l=5
X80 1st_Vout_1.t21 cap_res1.t14 sky130_fd_pr__cap_mim_m3_1 l=2 w=2
X81 PFET_GATE_10uA.t2 1st_Vout_2.t19 VDDA.t79 VDDA.t78 sky130_fd_pr__pfet_01v8 ad=0.2 pd=1.4 as=0.2 ps=1.4 w=1 l=0.2
X82 1st_Vout_2.t20 cap_res2.t13 sky130_fd_pr__cap_mim_m3_1 l=2 w=2
X83 GNDA.t54 NFET_GATE_10uA.t12 VB2_CUR_BIAS.t3 GNDA.t53 sky130_fd_pr__nfet_01v8 ad=0.2 pd=1.4 as=0.2 ps=1.4 w=1 l=0.5
X84 VDDA.t153 PFET_GATE_10uA.t17 V_CMFB_S3.t3 VDDA.t152 sky130_fd_pr__pfet_01v8 ad=0.2 pd=1.4 as=0.2 ps=1.4 w=1 l=0.5
X85 NFET_GATE_10uA.t4 VDDA.t193 VDDA.t195 VDDA.t194 sky130_fd_pr__pfet_01v8 ad=0.2 pd=1.4 as=0.4 ps=2.8 w=1 l=0.5
X86 Vin-.t2 V_TOP.t26 VDDA.t89 VDDA.t88 sky130_fd_pr__pfet_01v8 ad=0.6 pd=3.4 as=0.6 ps=3.4 w=3 l=0.5
X87 V_mir1.t15 Vin-.t9 V_p_1.t2 GNDA.t41 sky130_fd_pr__nfet_01v8 ad=0.1 pd=0.9 as=0.1 ps=0.9 w=0.5 l=0.2
X88 1st_Vout_2.t10 V_CUR_REF_REG.t5 V_p_2.t7 GNDA.t99 sky130_fd_pr__nfet_01v8 ad=0.1 pd=0.9 as=0.1 ps=0.9 w=0.5 l=0.2
X89 1st_Vout_1.t22 cap_res1.t13 sky130_fd_pr__cap_mim_m3_1 l=2 w=2
X90 1st_Vout_2.t21 cap_res2.t12 sky130_fd_pr__cap_mim_m3_1 l=2 w=2
X91 1st_Vout_2.t22 cap_res2.t11 sky130_fd_pr__cap_mim_m3_1 l=2 w=2
X92 V_mir1.t11 V_mir1.t10 VDDA.t45 VDDA.t44 sky130_fd_pr__pfet_01v8 ad=0.2 pd=1.4 as=0.2 ps=1.4 w=1 l=0.2
X93 ERR_AMP_REF.t3 V_TOP.t27 VDDA.t145 VDDA.t144 sky130_fd_pr__pfet_01v8 ad=0.6 pd=3.4 as=0.6 ps=3.4 w=3 l=0.5
X94 1st_Vout_1.t8 Vin+.t8 V_p_1.t9 GNDA.t64 sky130_fd_pr__nfet_01v8 ad=0.1 pd=0.9 as=0.1 ps=0.9 w=0.5 l=0.2
X95 VDDA.t60 PFET_GATE_10uA.t18 V_CMFB_S1.t1 VDDA.t59 sky130_fd_pr__pfet_01v8 ad=0.2 pd=1.4 as=0.2 ps=1.4 w=1 l=0.5
X96 1st_Vout_1.t23 cap_res1.t12 sky130_fd_pr__cap_mim_m3_1 l=2 w=2
X97 GNDA.t18 a_1830_6460.t1 GNDA.t17 sky130_fd_pr__res_xhigh_po_0p35 l=6
X98 VDDA.t192 VDDA.t190 VB1_CUR_BIAS.t3 VDDA.t191 sky130_fd_pr__pfet_01v8 ad=0.4 pd=2.8 as=0.2 ps=1.4 w=1 l=0.5
X99 GNDA.t81 GNDA.t79 V_CMFB_S4.t0 GNDA.t80 sky130_fd_pr__nfet_01v8 ad=0.4 pd=2.8 as=0.2 ps=1.4 w=1 l=0.5
X100 V_mir1.t9 V_mir1.t8 VDDA.t18 VDDA.t17 sky130_fd_pr__pfet_01v8 ad=0.2 pd=1.4 as=0.2 ps=1.4 w=1 l=0.2
X101 1st_Vout_1.t7 Vin+.t9 V_p_1.t7 GNDA.t63 sky130_fd_pr__nfet_01v8 ad=0.1 pd=0.9 as=0.1 ps=0.9 w=0.5 l=0.2
X102 1st_Vout_2.t23 cap_res2.t10 sky130_fd_pr__cap_mim_m3_1 l=2 w=2
X103 V_CMFB_S3.t2 PFET_GATE_10uA.t19 VDDA.t68 VDDA.t67 sky130_fd_pr__pfet_01v8 ad=0.2 pd=1.4 as=0.2 ps=1.4 w=1 l=0.5
X104 V_TOP.t28 VDDA.t34 sky130_fd_pr__cap_mim_m3_1 l=2 w=2
X105 V_CMFB_S4.t2 NFET_GATE_10uA.t13 GNDA.t36 GNDA.t35 sky130_fd_pr__nfet_01v8 ad=0.2 pd=1.4 as=0.2 ps=1.4 w=1 l=0.5
X106 V_mir1.t7 V_mir1.t6 VDDA.t138 VDDA.t137 sky130_fd_pr__pfet_01v8 ad=0.2 pd=1.4 as=0.2 ps=1.4 w=1 l=0.2
X107 V_mir1.t14 Vin-.t10 V_p_1.t4 GNDA.t52 sky130_fd_pr__nfet_01v8 ad=0.2 pd=1.8 as=0.1 ps=0.9 w=0.5 l=0.2
X108 1st_Vout_2.t4 V_CUR_REF_REG.t6 V_p_2.t6 GNDA.t24 sky130_fd_pr__nfet_01v8 ad=0.2 pd=1.8 as=0.1 ps=0.9 w=0.5 l=0.2
X109 VDDA.t73 PFET_GATE_10uA.t20 NFET_GATE_10uA.t1 VDDA.t72 sky130_fd_pr__pfet_01v8 ad=0.2 pd=1.4 as=0.2 ps=1.4 w=1 l=0.5
X110 GNDA.t105 NFET_GATE_10uA.t14 VB2_CUR_BIAS.t2 GNDA.t104 sky130_fd_pr__nfet_01v8 ad=0.2 pd=1.4 as=0.2 ps=1.4 w=1 l=0.5
X111 VDDA.t114 V_mir2.t7 V_mir2.t8 VDDA.t113 sky130_fd_pr__pfet_01v8 ad=0.2 pd=1.4 as=0.2 ps=1.4 w=1 l=0.2
X112 1st_Vout_2.t24 cap_res2.t9 sky130_fd_pr__cap_mim_m3_1 l=2 w=2
X113 V_TOP.t29 VDDA.t141 sky130_fd_pr__cap_mim_m3_1 l=2 w=2
X114 V_CUR_REF_REG.t0 a_1830_6460.t0 GNDA.t16 sky130_fd_pr__res_xhigh_po_0p35 l=6
X115 V_TOP.t30 VDDA.t165 sky130_fd_pr__cap_mim_m3_1 l=2 w=2
X116 VDDA.t171 VDDA.t169 V_TOP.t10 VDDA.t170 sky130_fd_pr__pfet_01v8 ad=0.4 pd=2.8 as=0.2 ps=1.4 w=1 l=0.15
X117 VDDA.t105 V_TOP.t31 ERR_AMP_REF.t2 VDDA.t104 sky130_fd_pr__pfet_01v8 ad=0.6 pd=3.4 as=0.6 ps=3.4 w=3 l=0.5
X118 VDDA.t140 PFET_GATE_10uA.t21 TAIL_CUR_MIR_BIAS.t3 VDDA.t139 sky130_fd_pr__pfet_01v8 ad=0.2 pd=1.4 as=0.2 ps=1.4 w=1 l=0.5
X119 V_p_1.t3 Vin-.t11 V_mir1.t13 GNDA.t51 sky130_fd_pr__nfet_01v8 ad=0.1 pd=0.9 as=0.1 ps=0.9 w=0.5 l=0.2
X120 1st_Vout_2.t25 cap_res2.t8 sky130_fd_pr__cap_mim_m3_1 l=2 w=2
X121 1st_Vout_2.t26 cap_res2.t7 sky130_fd_pr__cap_mim_m3_1 l=2 w=2
X122 GNDA.t34 NFET_GATE_10uA.t2 NFET_GATE_10uA.t3 GNDA.t33 sky130_fd_pr__nfet_01v8 ad=0.2 pd=1.4 as=0.2 ps=1.4 w=1 l=0.5
X123 1st_Vout_1.t3 V_mir1.t18 VDDA.t116 VDDA.t115 sky130_fd_pr__pfet_01v8 ad=0.2 pd=1.4 as=0.2 ps=1.4 w=1 l=0.2
X124 cap_res1.t0 V_TOP.t2 GNDA.t12 sky130_fd_pr__res_high_po_0p35 l=2.05
X125 VDDA.t87 V_mir1.t4 V_mir1.t5 VDDA.t86 sky130_fd_pr__pfet_01v8 ad=0.2 pd=1.4 as=0.2 ps=1.4 w=1 l=0.2
X126 1st_Vout_1.t24 cap_res1.t11 sky130_fd_pr__cap_mim_m3_1 l=2 w=2
X127 V_CMFB_S2.t0 GNDA.t76 GNDA.t78 GNDA.t77 sky130_fd_pr__nfet_01v8 ad=0.2 pd=1.4 as=0.4 ps=2.8 w=1 l=0.5
X128 1st_Vout_2.t8 V_mir2.t18 VDDA.t127 VDDA.t126 sky130_fd_pr__pfet_01v8 ad=0.2 pd=1.4 as=0.2 ps=1.4 w=1 l=0.2
X129 V_TOP.t32 VDDA.t10 sky130_fd_pr__cap_mim_m3_1 l=2 w=2
X130 VDDA.t36 PFET_GATE_10uA.t22 V_CMFB_S3.t1 VDDA.t35 sky130_fd_pr__pfet_01v8 ad=0.2 pd=1.4 as=0.2 ps=1.4 w=1 l=0.5
X131 ERR_AMP_REF.t5 VDDA.t187 VDDA.t189 VDDA.t188 sky130_fd_pr__pfet_01v8 ad=0.6 pd=3.4 as=1.2 ps=6.8 w=3 l=0.5
X132 VDDA.t134 V_mir1.t2 V_mir1.t3 VDDA.t133 sky130_fd_pr__pfet_01v8 ad=0.2 pd=1.4 as=0.2 ps=1.4 w=1 l=0.2
X133 V_p_1.t8 Vin+.t10 1st_Vout_1.t6 GNDA.t62 sky130_fd_pr__nfet_01v8 ad=0.1 pd=0.9 as=0.1 ps=0.9 w=0.5 l=0.2
X134 1st_Vout_1.t25 cap_res1.t10 sky130_fd_pr__cap_mim_m3_1 l=2 w=2
X135 V_p_2.t10 VDDA.t217 GNDA.t107 GNDA.t24 sky130_fd_pr__nfet_01v8 ad=1 pd=5.8 as=0.5 ps=2.9 w=2.5 l=5
X136 Vin-.t6 START_UP.t7 V_TOP.t5 VDDA.t53 sky130_fd_pr__pfet_01v8 ad=0.2 pd=1.4 as=0.2 ps=1.4 w=1 l=0.15
X137 V_TOP.t33 VDDA.t71 sky130_fd_pr__cap_mim_m3_1 l=2 w=2
X138 V_CMFB_S2.t3 NFET_GATE_10uA.t15 GNDA.t101 GNDA.t100 sky130_fd_pr__nfet_01v8 ad=0.2 pd=1.4 as=0.2 ps=1.4 w=1 l=0.5
X139 GNDA.t68 GNDA.t69 Vbe2.t2 sky130_fd_pr__pnp_05v5_W3p40L3p40
**devattr s=462400,2720
X140 PFET_GATE_10uA.t8 VDDA.t184 VDDA.t186 VDDA.t185 sky130_fd_pr__pfet_01v8 ad=0.2 pd=1.4 as=0.4 ps=2.8 w=1 l=0.2
X141 V_p_2.t5 V_CUR_REF_REG.t7 1st_Vout_2.t7 GNDA.t42 sky130_fd_pr__nfet_01v8 ad=0.1 pd=0.9 as=0.1 ps=0.9 w=0.5 l=0.2
X142 1st_Vout_1.t26 cap_res1.t9 sky130_fd_pr__cap_mim_m3_1 l=2 w=2
X143 TAIL_CUR_MIR_BIAS.t2 PFET_GATE_10uA.t23 VDDA.t47 VDDA.t46 sky130_fd_pr__pfet_01v8 ad=0.2 pd=1.4 as=0.2 ps=1.4 w=1 l=0.5
X144 VDDA.t136 V_mir1.t0 V_mir1.t1 VDDA.t135 sky130_fd_pr__pfet_01v8 ad=0.2 pd=1.4 as=0.2 ps=1.4 w=1 l=0.2
X145 V_TOP.t34 VDDA.t48 sky130_fd_pr__cap_mim_m3_1 l=2 w=2
X146 1st_Vout_2.t27 cap_res2.t6 sky130_fd_pr__cap_mim_m3_1 l=2 w=2
X147 V_TOP.t35 VDDA.t62 sky130_fd_pr__cap_mim_m3_1 l=2 w=2
X148 ERR_AMP_CUR_BIAS.t1 NFET_GATE_10uA.t16 GNDA.t32 GNDA.t31 sky130_fd_pr__nfet_01v8 ad=0.2 pd=1.4 as=0.2 ps=1.4 w=1 l=0.5
X149 PFET_GATE_10uA.t4 1st_Vout_2.t28 VDDA.t101 VDDA.t100 sky130_fd_pr__pfet_01v8 ad=0.2 pd=1.4 as=0.2 ps=1.4 w=1 l=0.2
X150 VDDA.t103 1st_Vout_2.t29 PFET_GATE_10uA.t5 VDDA.t102 sky130_fd_pr__pfet_01v8 ad=0.2 pd=1.4 as=0.2 ps=1.4 w=1 l=0.2
X151 START_UP.t1 V_TOP.t36 VDDA.t3 VDDA.t2 sky130_fd_pr__pfet_01v8 ad=0.6 pd=3.4 as=0.6 ps=3.4 w=3 l=0.5
X152 VDDA.t112 V_mir1.t19 1st_Vout_1.t2 VDDA.t111 sky130_fd_pr__pfet_01v8 ad=0.2 pd=1.4 as=0.2 ps=1.4 w=1 l=0.2
X153 1st_Vout_1.t27 cap_res1.t8 sky130_fd_pr__cap_mim_m3_1 l=2 w=2
X154 1st_Vout_1.t28 cap_res1.t7 sky130_fd_pr__cap_mim_m3_1 l=2 w=2
X155 VB3_CUR_BIAS.t3 NFET_GATE_10uA.t17 GNDA.t56 GNDA.t55 sky130_fd_pr__nfet_01v8 ad=0.2 pd=1.4 as=0.2 ps=1.4 w=1 l=0.5
X156 VDDA.t149 V_TOP.t37 ERR_AMP_REF.t1 VDDA.t148 sky130_fd_pr__pfet_01v8 ad=0.6 pd=3.4 as=0.6 ps=3.4 w=3 l=0.5
X157 V_CMFB_S3.t0 PFET_GATE_10uA.t24 VDDA.t42 VDDA.t41 sky130_fd_pr__pfet_01v8 ad=0.2 pd=1.4 as=0.2 ps=1.4 w=1 l=0.5
X158 VDDA.t16 V_mir1.t20 1st_Vout_1.t1 VDDA.t15 sky130_fd_pr__pfet_01v8 ad=0.2 pd=1.4 as=0.2 ps=1.4 w=1 l=0.2
X159 1st_Vout_1.t5 V_mir1.t21 VDDA.t132 VDDA.t131 sky130_fd_pr__pfet_01v8 ad=0.2 pd=1.4 as=0.2 ps=1.4 w=1 l=0.2
X160 GNDA.t50 NFET_GATE_10uA.t18 V_CMFB_S2.t2 GNDA.t49 sky130_fd_pr__nfet_01v8 ad=0.2 pd=1.4 as=0.2 ps=1.4 w=1 l=0.5
X161 VDDA.t82 V_TOP.t38 Vin-.t1 VDDA.t81 sky130_fd_pr__pfet_01v8 ad=0.6 pd=3.4 as=0.6 ps=3.4 w=3 l=0.5
X162 VDDA.t14 V_mir2.t19 1st_Vout_2.t1 VDDA.t13 sky130_fd_pr__pfet_01v8 ad=0.2 pd=1.4 as=0.2 ps=1.4 w=1 l=0.2
X163 1st_Vout_1.t29 cap_res1.t6 sky130_fd_pr__cap_mim_m3_1 l=2 w=2
X164 1st_Vout_2.t30 cap_res2.t5 sky130_fd_pr__cap_mim_m3_1 l=2 w=2
X165 V_mir1.t12 Vin-.t12 V_p_1.t0 GNDA.t22 sky130_fd_pr__nfet_01v8 ad=0.1 pd=0.9 as=0.1 ps=0.9 w=0.5 l=0.2
X166 GNDA.t48 NFET_GATE_10uA.t19 ERR_AMP_CUR_BIAS.t0 GNDA.t47 sky130_fd_pr__nfet_01v8 ad=0.2 pd=1.4 as=0.2 ps=1.4 w=1 l=0.5
X167 cap_res2.t0 PFET_GATE_10uA.t3 GNDA.t12 sky130_fd_pr__res_high_po_0p35 l=2.05
X168 Vbe2.t8 Vin+.t5 GNDA.t106 sky130_fd_pr__res_xhigh_po_0p35 l=2.3
X169 1st_Vout_1.t0 V_mir1.t22 VDDA.t9 VDDA.t8 sky130_fd_pr__pfet_01v8 ad=0.2 pd=1.4 as=0.2 ps=1.4 w=1 l=0.2
X170 V_TOP.t39 VDDA.t80 sky130_fd_pr__cap_mim_m3_1 l=2 w=2
X171 VDDA.t77 1st_Vout_2.t31 PFET_GATE_10uA.t1 VDDA.t76 sky130_fd_pr__pfet_01v8 ad=0.2 pd=1.4 as=0.2 ps=1.4 w=1 l=0.2
X172 1st_Vout_2.t32 cap_res2.t4 sky130_fd_pr__cap_mim_m3_1 l=2 w=2
X173 1st_Vout_2.t33 cap_res2.t3 sky130_fd_pr__cap_mim_m3_1 l=2 w=2
X174 V_mir2.t4 ERR_AMP_REF.t10 V_p_2.t4 GNDA.t15 sky130_fd_pr__nfet_01v8 ad=0.1 pd=0.9 as=0.1 ps=0.9 w=0.5 l=0.2
X175 VDDA.t183 VDDA.t181 V_CUR_REF_REG.t2 VDDA.t182 sky130_fd_pr__pfet_01v8 ad=0.4 pd=2.8 as=0.2 ps=1.4 w=1 l=0.5
X176 GNDA.t46 NFET_GATE_10uA.t20 VB3_CUR_BIAS.t2 GNDA.t45 sky130_fd_pr__nfet_01v8 ad=0.2 pd=1.4 as=0.2 ps=1.4 w=1 l=0.5
X177 START_UP.t0 V_TOP.t40 VDDA.t107 VDDA.t106 sky130_fd_pr__pfet_01v8 ad=0.6 pd=3.4 as=0.6 ps=3.4 w=3 l=0.5
X178 GNDA.t74 GNDA.t75 Vin-.t5 sky130_fd_pr__pnp_05v5_W3p40L3p40
**devattr s=462400,2720
X179 VDDA.t180 VDDA.t178 V_CMFB_S3.t5 VDDA.t179 sky130_fd_pr__pfet_01v8 ad=0.4 pd=2.8 as=0.2 ps=1.4 w=1 l=0.5
X180 GNDA.t71 GNDA.t70 Vbe2.t1 sky130_fd_pr__pnp_05v5_W3p40L3p40
**devattr s=462400,2720
X181 VDDA.t143 1st_Vout_2.t34 PFET_GATE_10uA.t6 VDDA.t142 sky130_fd_pr__pfet_01v8 ad=0.2 pd=1.4 as=0.2 ps=1.4 w=1 l=0.2
X182 V_CMFB_S1.t4 VDDA.t175 VDDA.t177 VDDA.t176 sky130_fd_pr__pfet_01v8 ad=0.2 pd=1.4 as=0.4 ps=2.8 w=1 l=0.5
X183 V_TOP.t8 1st_Vout_1.t30 VDDA.t162 VDDA.t161 sky130_fd_pr__pfet_01v8 ad=0.2 pd=1.4 as=0.2 ps=1.4 w=1 l=0.2
X184 1st_Vout_2.t35 cap_res2.t2 sky130_fd_pr__cap_mim_m3_1 l=2 w=2
X185 GNDA.t98 NFET_GATE_10uA.t21 V_CMFB_S4.t1 GNDA.t97 sky130_fd_pr__nfet_01v8 ad=0.2 pd=1.4 as=0.2 ps=1.4 w=1 l=0.5
X186 GNDA.t68 GNDA.t67 Vbe2.t0 sky130_fd_pr__pnp_05v5_W3p40L3p40
**devattr s=462400,2720
X187 Vin+.t3 V_TOP.t41 VDDA.t155 VDDA.t154 sky130_fd_pr__pfet_01v8 ad=0.6 pd=3.4 as=0.6 ps=3.4 w=3 l=0.5
X188 1st_Vout_1.t31 cap_res1.t5 sky130_fd_pr__cap_mim_m3_1 l=2 w=2
X189 TAIL_CUR_MIR_BIAS.t1 PFET_GATE_10uA.t25 VDDA.t118 VDDA.t117 sky130_fd_pr__pfet_01v8 ad=0.2 pd=1.4 as=0.2 ps=1.4 w=1 l=0.5
X190 V_CMFB_S3.t4 VDDA.t172 VDDA.t174 VDDA.t173 sky130_fd_pr__pfet_01v8 ad=0.2 pd=1.4 as=0.4 ps=2.8 w=1 l=0.5
X191 VB1_CUR_BIAS.t2 VDDA.t166 VDDA.t168 VDDA.t167 sky130_fd_pr__pfet_01v8 ad=0.2 pd=1.4 as=0.4 ps=2.8 w=1 l=0.5
X192 ERR_AMP_REF.t0 a_1890_6990.t1 GNDA.t37 sky130_fd_pr__res_xhigh_po_0p35 l=6.3
X193 V_TOP.t42 VDDA.t156 sky130_fd_pr__cap_mim_m3_1 l=2 w=2
X194 V_CMFB_S1.t2 PFET_GATE_10uA.t26 VDDA.t94 VDDA.t93 sky130_fd_pr__pfet_01v8 ad=0.2 pd=1.4 as=0.2 ps=1.4 w=1 l=0.5
X195 V_TOP.t0 1st_Vout_1.t32 VDDA.t1 VDDA.t0 sky130_fd_pr__pfet_01v8 ad=0.2 pd=1.4 as=0.2 ps=1.4 w=1 l=0.2
X196 VDDA.t20 V_mir2.t20 1st_Vout_2.t2 VDDA.t19 sky130_fd_pr__pfet_01v8 ad=0.2 pd=1.4 as=0.2 ps=1.4 w=1 l=0.2
X197 1st_Vout_1.t33 cap_res1.t4 sky130_fd_pr__cap_mim_m3_1 l=2 w=2
X198 1st_Vout_1.t34 cap_res1.t3 sky130_fd_pr__cap_mim_m3_1 l=2 w=2
X199 START_UP_NFET1.t1 START_UP.t4 START_UP.t5 GNDA.t21 sky130_fd_pr__nfet_01v8 ad=0.2 pd=1.4 as=0.4 ps=2.8 w=1 l=10
X200 a_2792_6240.t1 a_4400_6600.t0 GNDA.t11 sky130_fd_pr__res_xhigh_po_0p35 l=6
X201 Vin+.t2 V_TOP.t43 VDDA.t164 VDDA.t163 sky130_fd_pr__pfet_01v8 ad=0.6 pd=3.4 as=0.6 ps=3.4 w=3 l=0.5
X202 V_mir2.t6 V_mir2.t5 VDDA.t56 VDDA.t55 sky130_fd_pr__pfet_01v8 ad=0.2 pd=1.4 as=0.2 ps=1.4 w=1 l=0.2
X203 a_2792_6240.t0 Vin+.t0 GNDA.t10 sky130_fd_pr__res_xhigh_po_0p35 l=6
X204 V_TOP.t44 VDDA.t90 sky130_fd_pr__cap_mim_m3_1 l=2 w=2
X205 V_TOP.t45 VDDA.t97 sky130_fd_pr__cap_mim_m3_1 l=2 w=2
X206 VB3_CUR_BIAS.t0 NFET_GATE_10uA.t22 GNDA.t2 GNDA.t1 sky130_fd_pr__nfet_01v8 ad=0.2 pd=1.4 as=0.2 ps=1.4 w=1 l=0.5
X207 V_TOP.t46 VDDA.t43 sky130_fd_pr__cap_mim_m3_1 l=2 w=2
X208 1st_Vout_1.t35 cap_res1.t2 sky130_fd_pr__cap_mim_m3_1 l=2 w=2
X209 1st_Vout_1.t36 cap_res1.t1 sky130_fd_pr__cap_mim_m3_1 l=2 w=2
X210 GNDA.t40 NFET_GATE_10uA.t23 V_CMFB_S2.t1 GNDA.t39 sky130_fd_pr__nfet_01v8 ad=0.2 pd=1.4 as=0.2 ps=1.4 w=1 l=0.5
X211 1st_Vout_2.t0 V_mir2.t21 VDDA.t7 VDDA.t6 sky130_fd_pr__pfet_01v8 ad=0.2 pd=1.4 as=0.2 ps=1.4 w=1 l=0.2
X212 V_TOP.t47 VDDA.t65 sky130_fd_pr__cap_mim_m3_1 l=2 w=2
X213 VDDA.t160 PFET_GATE_10uA.t27 V_CMFB_S1.t3 VDDA.t159 sky130_fd_pr__pfet_01v8 ad=0.2 pd=1.4 as=0.2 ps=1.4 w=1 l=0.5
X214 V_p_2.t1 ERR_AMP_REF.t11 V_mir2.t1 GNDA.t3 sky130_fd_pr__nfet_01v8 ad=0.1 pd=0.9 as=0.1 ps=0.9 w=0.5 l=0.2
X215 VDDA.t70 V_TOP.t48 Vin+.t1 VDDA.t69 sky130_fd_pr__pfet_01v8 ad=0.6 pd=3.4 as=0.6 ps=3.4 w=3 l=0.5
X216 1st_Vout_2.t36 cap_res2.t1 sky130_fd_pr__cap_mim_m3_1 l=2 w=2
X217 V_TOP.t49 VDDA.t128 sky130_fd_pr__cap_mim_m3_1 l=2 w=2
X218 GNDA.t61 a_4400_6600.t1 GNDA.t60 sky130_fd_pr__res_xhigh_po_0p35 l=6
X219 VDDA.t147 PFET_GATE_10uA.t28 TAIL_CUR_MIR_BIAS.t0 VDDA.t146 sky130_fd_pr__pfet_01v8 ad=0.2 pd=1.4 as=0.2 ps=1.4 w=1 l=0.5
X220 VDDA.t151 PFET_GATE_10uA.t29 VB1_CUR_BIAS.t0 VDDA.t150 sky130_fd_pr__pfet_01v8 ad=0.2 pd=1.4 as=0.2 ps=1.4 w=1 l=0.5
X221 GNDA.t9 a_1890_6990.t0 GNDA.t8 sky130_fd_pr__res_xhigh_po_0p35 l=6.3
X222 a_2792_6360.t0 Vin-.t0 GNDA.t10 sky130_fd_pr__res_xhigh_po_0p35 l=6
X223 1st_Vout_2.t5 V_mir2.t22 VDDA.t50 VDDA.t49 sky130_fd_pr__pfet_01v8 ad=0.2 pd=1.4 as=0.2 ps=1.4 w=1 l=0.2
R0 VDDA.n121 VDDA.n117 6600
R1 VDDA.n121 VDDA.n118 6600
R2 VDDA.n123 VDDA.n117 6570
R3 VDDA.n123 VDDA.n118 6570
R4 VDDA.n66 VDDA.n13 4710
R5 VDDA.n66 VDDA.n14 4710
R6 VDDA.n64 VDDA.n13 4710
R7 VDDA.n64 VDDA.n14 4710
R8 VDDA.n42 VDDA.n35 4710
R9 VDDA.n44 VDDA.n35 4710
R10 VDDA.n42 VDDA.n41 4710
R11 VDDA.n44 VDDA.n41 4710
R12 VDDA.n188 VDDA.n182 4350
R13 VDDA.n188 VDDA.n183 4350
R14 VDDA.n186 VDDA.n182 4350
R15 VDDA.n186 VDDA.n183 4350
R16 VDDA.n202 VDDA.n196 2730
R17 VDDA.n202 VDDA.n197 2730
R18 VDDA.n200 VDDA.n196 2730
R19 VDDA.n200 VDDA.n197 2730
R20 VDDA.n174 VDDA.n168 2730
R21 VDDA.n174 VDDA.n169 2730
R22 VDDA.n172 VDDA.n168 2730
R23 VDDA.n172 VDDA.n169 2730
R24 VDDA.n136 VDDA.n131 2190
R25 VDDA.n138 VDDA.n131 2190
R26 VDDA.n136 VDDA.n134 2190
R27 VDDA.n138 VDDA.n134 2190
R28 VDDA.n108 VDDA.n103 1770
R29 VDDA.n110 VDDA.n103 1770
R30 VDDA.n108 VDDA.n106 1770
R31 VDDA.n110 VDDA.n106 1770
R32 VDDA.n120 VDDA.n119 704
R33 VDDA.n120 VDDA.n86 704
R34 VDDA.n125 VDDA.n124 518.4
R35 VDDA.n124 VDDA.n116 518.4
R36 VDDA.n46 VDDA.n45 496
R37 VDDA.n46 VDDA.n34 496
R38 VDDA.n185 VDDA.n184 464
R39 VDDA.n185 VDDA.n152 464
R40 VDDA.n101 VDDA.t169 413.084
R41 VDDA.n104 VDDA.t202 413.084
R42 VDDA.t179 VDDA.n196 394.774
R43 VDDA.t173 VDDA.n197 394.774
R44 VDDA.t191 VDDA.n136 394.774
R45 VDDA.n138 VDDA.t167 394.774
R46 VDDA.t182 VDDA.n182 390.262
R47 VDDA.t194 VDDA.n183 390.262
R48 VDDA.t212 VDDA.n168 390.262
R49 VDDA.t176 VDDA.n169 390.262
R50 VDDA.n129 VDDA.t192 389.185
R51 VDDA.n132 VDDA.t168 389.185
R52 VDDA.n191 VDDA.t183 387.051
R53 VDDA.n180 VDDA.t195 387.051
R54 VDDA.n101 VDDA.t171 384.918
R55 VDDA.n104 VDDA.t204 384.918
R56 VDDA.n15 VDDA.t207 384.918
R57 VDDA.n17 VDDA.t186 384.918
R58 VDDA.n38 VDDA.t210 384.918
R59 VDDA.n36 VDDA.t198 384.918
R60 VDDA.n63 VDDA.n16 384
R61 VDDA.n63 VDDA.n62 384
R62 VDDA.n40 VDDA.n39 384
R63 VDDA.n40 VDDA.n37 384
R64 VDDA.n177 VDDA.t213 370.728
R65 VDDA.n166 VDDA.t177 370.728
R66 VDDA.n205 VDDA.t180 370.3
R67 VDDA.n194 VDDA.t174 370.3
R68 VDDA.n115 VDDA.t187 360.868
R69 VDDA.n126 VDDA.t199 360.868
R70 VDDA.n15 VDDA.t205 358.858
R71 VDDA.n17 VDDA.t184 358.858
R72 VDDA.n38 VDDA.t208 358.858
R73 VDDA.n36 VDDA.t196 358.858
R74 VDDA.t206 VDDA.n13 351.591
R75 VDDA.t185 VDDA.n14 351.591
R76 VDDA.t209 VDDA.n42 351.591
R77 VDDA.n44 VDDA.t197 351.591
R78 VDDA.n190 VDDA.n189 345.601
R79 VDDA.n189 VDDA.n181 345.601
R80 VDDA.n162 VDDA.n161 345.127
R81 VDDA.n165 VDDA.n164 345.127
R82 VDDA.n146 VDDA.n145 344.7
R83 VDDA.n149 VDDA.n148 344.7
R84 VDDA.t170 VDDA.n108 344.394
R85 VDDA.n110 VDDA.t203 344.394
R86 VDDA.n29 VDDA.n27 342.301
R87 VDDA.n57 VDDA.n56 341.676
R88 VDDA.n55 VDDA.n54 341.676
R89 VDDA.n53 VDDA.n52 341.676
R90 VDDA.n51 VDDA.n50 341.676
R91 VDDA.n33 VDDA.n32 341.676
R92 VDDA.n31 VDDA.n30 341.676
R93 VDDA.n29 VDDA.n28 341.676
R94 VDDA.n151 VDDA.n150 339.272
R95 VDDA.n154 VDDA.n153 339.272
R96 VDDA.n156 VDDA.n155 339.272
R97 VDDA.n158 VDDA.n157 339.272
R98 VDDA.n160 VDDA.n159 339.272
R99 VDDA.n25 VDDA.n24 337.176
R100 VDDA.n22 VDDA.n20 337.176
R101 VDDA.n11 VDDA.n10 337.176
R102 VDDA.n68 VDDA.n9 337.176
R103 VDDA.n71 VDDA.n70 337.176
R104 VDDA.n75 VDDA.n74 337.176
R105 VDDA.n78 VDDA.n77 337.176
R106 VDDA.n81 VDDA.n5 337.176
R107 VDDA.n59 VDDA.n19 337.176
R108 VDDA.n48 VDDA.n47 337.176
R109 VDDA.n142 VDDA.n128 335.022
R110 VDDA.n199 VDDA.n198 291.2
R111 VDDA.n199 VDDA.n147 291.2
R112 VDDA.n171 VDDA.n170 291.2
R113 VDDA.n171 VDDA.n163 291.2
R114 VDDA.t200 VDDA.n117 278.95
R115 VDDA.t188 VDDA.n118 278.95
R116 VDDA.n129 VDDA.t190 274.509
R117 VDDA.n132 VDDA.t166 274.509
R118 VDDA.n126 VDDA.t201 270.705
R119 VDDA.n115 VDDA.t189 270.705
R120 VDDA.n194 VDDA.t172 264.467
R121 VDDA.n205 VDDA.t178 264.467
R122 VDDA.n180 VDDA.t193 264.467
R123 VDDA.n191 VDDA.t181 264.467
R124 VDDA.n166 VDDA.t175 264.467
R125 VDDA.n177 VDDA.t211 264.467
R126 VDDA.t41 VDDA.t179 259.091
R127 VDDA.t35 VDDA.t41 259.091
R128 VDDA.t67 VDDA.t152 259.091
R129 VDDA.t152 VDDA.t173 259.091
R130 VDDA.t51 VDDA.t191 259.091
R131 VDDA.t167 VDDA.t150 259.091
R132 VDDA.t23 VDDA.t182 255.225
R133 VDDA.t74 VDDA.t23 255.225
R134 VDDA.t109 VDDA.t74 255.225
R135 VDDA.t119 VDDA.t109 255.225
R136 VDDA.t46 VDDA.t119 255.225
R137 VDDA.t139 VDDA.t95 255.225
R138 VDDA.t95 VDDA.t146 255.225
R139 VDDA.t146 VDDA.t117 255.225
R140 VDDA.t117 VDDA.t72 255.225
R141 VDDA.t72 VDDA.t194 255.225
R142 VDDA.t93 VDDA.t212 255.225
R143 VDDA.t59 VDDA.t93 255.225
R144 VDDA.t37 VDDA.t159 255.225
R145 VDDA.t159 VDDA.t176 255.225
R146 VDDA.n139 VDDA.n133 233.601
R147 VDDA.n135 VDDA.n133 233.601
R148 VDDA.n111 VDDA.n105 188.8
R149 VDDA.n107 VDDA.n105 188.8
R150 VDDA.n61 VDDA.n60 188.8
R151 VDDA.n80 VDDA.n6 188.8
R152 VDDA.n119 VDDA.n116 182.4
R153 VDDA.n125 VDDA.n86 182.4
R154 VDDA.n204 VDDA.n203 172.8
R155 VDDA.n203 VDDA.n195 172.8
R156 VDDA.n176 VDDA.n175 172.8
R157 VDDA.n175 VDDA.n167 172.8
R158 VDDA.t29 VDDA.t206 172.727
R159 VDDA.t4 VDDA.t29 172.727
R160 VDDA.t55 VDDA.t4 172.727
R161 VDDA.t13 VDDA.t55 172.727
R162 VDDA.t126 VDDA.t13 172.727
R163 VDDA.t102 VDDA.t126 172.727
R164 VDDA.t78 VDDA.t102 172.727
R165 VDDA.t57 VDDA.t78 172.727
R166 VDDA.t21 VDDA.t57 172.727
R167 VDDA.t19 VDDA.t49 172.727
R168 VDDA.t49 VDDA.t142 172.727
R169 VDDA.t142 VDDA.t100 172.727
R170 VDDA.t100 VDDA.t113 172.727
R171 VDDA.t113 VDDA.t124 172.727
R172 VDDA.t124 VDDA.t31 172.727
R173 VDDA.t31 VDDA.t6 172.727
R174 VDDA.t6 VDDA.t76 172.727
R175 VDDA.t76 VDDA.t185 172.727
R176 VDDA.t0 VDDA.t209 172.727
R177 VDDA.t15 VDDA.t0 172.727
R178 VDDA.t115 VDDA.t15 172.727
R179 VDDA.t135 VDDA.t115 172.727
R180 VDDA.t137 VDDA.t135 172.727
R181 VDDA.t39 VDDA.t137 172.727
R182 VDDA.t161 VDDA.t39 172.727
R183 VDDA.t111 VDDA.t161 172.727
R184 VDDA.t8 VDDA.t111 172.727
R185 VDDA.t17 VDDA.t133 172.727
R186 VDDA.t27 VDDA.t17 172.727
R187 VDDA.t91 VDDA.t27 172.727
R188 VDDA.t122 VDDA.t91 172.727
R189 VDDA.t131 VDDA.t122 172.727
R190 VDDA.t86 VDDA.t131 172.727
R191 VDDA.t44 VDDA.t86 172.727
R192 VDDA.t63 VDDA.t44 172.727
R193 VDDA.t197 VDDA.t63 172.727
R194 VDDA.n85 VDDA.n84 168.435
R195 VDDA.n88 VDDA.n87 168.435
R196 VDDA.n90 VDDA.n89 168.435
R197 VDDA.n92 VDDA.n91 168.435
R198 VDDA.n94 VDDA.n93 168.435
R199 VDDA.n96 VDDA.n95 168.435
R200 VDDA.n98 VDDA.n97 168.435
R201 VDDA.n100 VDDA.n99 168.435
R202 VDDA.t129 VDDA.t200 159.814
R203 VDDA.t11 VDDA.t129 159.814
R204 VDDA.t2 VDDA.t11 159.814
R205 VDDA.t157 VDDA.t2 159.814
R206 VDDA.t83 VDDA.t157 159.814
R207 VDDA.t25 VDDA.t83 159.814
R208 VDDA.t163 VDDA.t25 159.814
R209 VDDA.t104 VDDA.t163 159.814
R210 VDDA.t144 VDDA.t69 159.814
R211 VDDA.t69 VDDA.t154 159.814
R212 VDDA.t154 VDDA.t81 159.814
R213 VDDA.t81 VDDA.t88 159.814
R214 VDDA.t88 VDDA.t98 159.814
R215 VDDA.t98 VDDA.t106 159.814
R216 VDDA.t106 VDDA.t148 159.814
R217 VDDA.t148 VDDA.t188 159.814
R218 VDDA.t33 VDDA.t170 158.333
R219 VDDA.t203 VDDA.t53 158.333
R220 VDDA.n201 VDDA.t35 129.546
R221 VDDA.n201 VDDA.t67 129.546
R222 VDDA.n137 VDDA.t51 129.546
R223 VDDA.t150 VDDA.n137 129.546
R224 VDDA.n187 VDDA.t46 127.612
R225 VDDA.n187 VDDA.t139 127.612
R226 VDDA.n173 VDDA.t59 127.612
R227 VDDA.n173 VDDA.t37 127.612
R228 VDDA.n198 VDDA.n195 118.4
R229 VDDA.n204 VDDA.n147 118.4
R230 VDDA.n184 VDDA.n181 118.4
R231 VDDA.n190 VDDA.n152 118.4
R232 VDDA.n170 VDDA.n167 118.4
R233 VDDA.n176 VDDA.n163 118.4
R234 VDDA.n140 VDDA.n139 118.4
R235 VDDA.n135 VDDA.n130 118.4
R236 VDDA.n112 VDDA.n111 118.4
R237 VDDA.n107 VDDA.n102 118.4
R238 VDDA.n62 VDDA.n61 118.4
R239 VDDA.n16 VDDA.n6 118.4
R240 VDDA.n45 VDDA.n37 118.4
R241 VDDA.n39 VDDA.n34 118.4
R242 VDDA.n141 VDDA.n140 107.52
R243 VDDA.n141 VDDA.n130 107.52
R244 VDDA.n198 VDDA.n197 92.5005
R245 VDDA.n200 VDDA.n199 92.5005
R246 VDDA.n201 VDDA.n200 92.5005
R247 VDDA.n196 VDDA.n147 92.5005
R248 VDDA.n203 VDDA.n202 92.5005
R249 VDDA.n202 VDDA.n201 92.5005
R250 VDDA.n184 VDDA.n183 92.5005
R251 VDDA.n186 VDDA.n185 92.5005
R252 VDDA.n187 VDDA.n186 92.5005
R253 VDDA.n182 VDDA.n152 92.5005
R254 VDDA.n189 VDDA.n188 92.5005
R255 VDDA.n188 VDDA.n187 92.5005
R256 VDDA.n170 VDDA.n169 92.5005
R257 VDDA.n172 VDDA.n171 92.5005