* PEX produced on Mon Jun 30 03:14:22 AM CEST 2025 using /foss/tools/osic-multitool/iic-pex.sh with m=3 and s=1
* NGSPICE file created from two_stage_opamp_dummy_magic.ext - technology: sky130A

.subckt two_stage_opamp_dummy_magic VDDA V_CMFB_S1 V_CMFB_S3 Vb3 Vb2 Vb1 V_CMFB_S2
+ V_CMFB_S4 VOUT- VOUT+ V_tail_gate V_err_amp_ref V_err_gate VIN+ VIN- GNDA
X0 VOUT-.t19 cap_res_X.t138 sky130_fd_pr__cap_mim_m3_1 l=2 w=2
X1 VOUT-.t20 cap_res_X.t137 sky130_fd_pr__cap_mim_m3_1 l=2 w=2
X2 VOUT-.t21 cap_res_X.t136 sky130_fd_pr__cap_mim_m3_1 l=2 w=2
X3 V_p.t34 V_tail_gate.t4 GNDA.t153 GNDA.t152 sky130_fd_pr__nfet_01v8 ad=0.5 pd=2.9 as=0.5 ps=2.9 w=2.5 l=0.15
X4 V_p.t33 V_tail_gate.t5 GNDA.t151 GNDA.t150 sky130_fd_pr__nfet_01v8 ad=0.5 pd=2.9 as=0.5 ps=2.9 w=2.5 l=0.15
X5 V_err_gate.t8 V_err_amp_ref.t0 V_err_mir_p.t12 VDDA.t233 sky130_fd_pr__pfet_01v8 ad=0.1 pd=0.9 as=0.1 ps=0.9 w=0.5 l=0.15
X6 VD4.t25 VDDA.t177 VDDA.t179 VDDA.t178 sky130_fd_pr__pfet_01v8 ad=0.7 pd=3.9 as=1.4 ps=7.8 w=3.5 l=0.2
X7 VDDA.t76 X.t25 VOUT-.t10 VDDA.t75 sky130_fd_pr__pfet_01v8 ad=1.2 pd=6.4 as=1.2 ps=6.4 w=6 l=0.15
X8 GNDA.t89 VDDA.t174 VDDA.t176 VDDA.t175 sky130_fd_pr__pfet_01v8 ad=0.4 pd=2.4 as=0.8 ps=4.8 w=2 l=0.15
X9 VOUT+.t19 cap_res_Y.t138 sky130_fd_pr__cap_mim_m3_1 l=2 w=2
X10 VOUT+.t20 cap_res_Y.t137 sky130_fd_pr__cap_mim_m3_1 l=2 w=2
X11 VOUT+.t21 cap_res_Y.t136 sky130_fd_pr__cap_mim_m3_1 l=2 w=2
X12 err_amp_mir.t16 err_amp_mir.t15 GNDA.t66 GNDA.t65 sky130_fd_pr__nfet_01v8 ad=0.1 pd=0.9 as=0.1 ps=0.9 w=0.5 l=0.15
X13 VOUT+.t22 cap_res_Y.t135 sky130_fd_pr__cap_mim_m3_1 l=2 w=2
X14 VOUT-.t22 cap_res_X.t135 sky130_fd_pr__cap_mim_m3_1 l=2 w=2
X15 VOUT-.t23 cap_res_X.t134 sky130_fd_pr__cap_mim_m3_1 l=2 w=2
X16 VOUT-.t24 cap_res_X.t133 sky130_fd_pr__cap_mim_m3_1 l=2 w=2
X17 VDDA.t109 Y.t25 V_CMFB_S4.t9 GNDA.t111 sky130_fd_pr__nfet_01v8 ad=0.6 pd=3.4 as=0.6 ps=3.4 w=3 l=0.15
X18 a_58940_5092.t1 V_CMFB_S2.t0 GNDA.t113 sky130_fd_pr__res_xhigh_po_0p35 l=4.07
X19 VOUT-.t25 cap_res_X.t132 sky130_fd_pr__cap_mim_m3_1 l=2 w=2
X20 VD1.t20 Vb1.t2 Y.t22 GNDA.t243 sky130_fd_pr__nfet_01v8 ad=0.3 pd=1.9 as=0.3 ps=1.9 w=1.5 l=0.15
X21 Vb3.t7 Vb2.t3 Vb2_Vb3.t23 Vb2_Vb3.t22 sky130_fd_pr__pfet_01v8 ad=0.12 pd=1 as=0.12 ps=1 w=0.6 l=0.2
X22 VDDA.t219 V_err_gate.t12 V_err_mir_p.t19 VDDA.t218 sky130_fd_pr__pfet_01v8 ad=0.1 pd=0.9 as=0.1 ps=0.9 w=0.5 l=0.15
X23 VDDA.t217 V_err_gate.t13 V_err_mir_p.t7 VDDA.t216 sky130_fd_pr__pfet_01v8 ad=0.1 pd=0.9 as=0.1 ps=0.9 w=0.5 l=0.15
X24 err_amp_mir.t4 V_tot.t4 V_err_p.t4 VDDA.t69 sky130_fd_pr__pfet_01v8 ad=0.1 pd=0.9 as=0.1 ps=0.9 w=0.5 l=0.15
X25 VOUT-.t26 cap_res_X.t131 sky130_fd_pr__cap_mim_m3_1 l=2 w=2
X26 VOUT-.t27 cap_res_X.t130 sky130_fd_pr__cap_mim_m3_1 l=2 w=2
X27 VOUT+.t23 cap_res_Y.t134 sky130_fd_pr__cap_mim_m3_1 l=2 w=2
X28 V_p.t36 VIN+.t0 VD2.t9 GNDA.t233 sky130_fd_pr__nfet_01v8 ad=0.3 pd=1.9 as=0.3 ps=1.9 w=1.5 l=0.15
X29 VOUT+.t24 cap_res_Y.t133 sky130_fd_pr__cap_mim_m3_1 l=2 w=2
X30 VOUT+.t25 cap_res_Y.t132 sky130_fd_pr__cap_mim_m3_1 l=2 w=2
X31 VDDA.t223 GNDA.t223 GNDA.t225 GNDA.t224 sky130_fd_pr__nfet_01v8 ad=0.6 pd=3.4 as=1.2 ps=6.8 w=3 l=0.15
X32 V_CMFB_S3.t10 Y.t26 GNDA.t70 VDDA.t65 sky130_fd_pr__pfet_01v8 ad=0.4 pd=2.4 as=0.4 ps=2.4 w=2 l=0.15
X33 VOUT+.t26 cap_res_Y.t131 sky130_fd_pr__cap_mim_m3_1 l=2 w=2
X34 VOUT+.t27 cap_res_Y.t130 sky130_fd_pr__cap_mim_m3_1 l=2 w=2
X35 VOUT+.t13 VDDA.t171 VDDA.t173 VDDA.t172 sky130_fd_pr__pfet_01v8 ad=1.2 pd=6.4 as=2.4 ps=12.8 w=6 l=0.15
X36 V_CMFB_S1.t10 X.t26 GNDA.t227 VDDA.t237 sky130_fd_pr__pfet_01v8 ad=0.4 pd=2.4 as=0.4 ps=2.4 w=2 l=0.15
X37 VOUT-.t28 cap_res_X.t129 sky130_fd_pr__cap_mim_m3_1 l=2 w=2
X38 VOUT+.t28 cap_res_Y.t129 sky130_fd_pr__cap_mim_m3_1 l=2 w=2
X39 GNDA.t40 err_amp_mir.t13 err_amp_mir.t14 GNDA.t39 sky130_fd_pr__nfet_01v8 ad=0.1 pd=0.9 as=0.1 ps=0.9 w=0.5 l=0.15
X40 VDDA.t170 VDDA.t168 Vb2_Vb3.t11 VDDA.t169 sky130_fd_pr__pfet_01v8 ad=0.32 pd=2.4 as=0.16 ps=1.2 w=0.8 l=0.2
X41 VOUT+.t29 cap_res_Y.t128 sky130_fd_pr__cap_mim_m3_1 l=2 w=2
X42 VOUT+.t30 cap_res_Y.t127 sky130_fd_pr__cap_mim_m3_1 l=2 w=2
X43 VOUT-.t29 cap_res_X.t128 sky130_fd_pr__cap_mim_m3_1 l=2 w=2
X44 V_err_p.t16 V_err_gate.t14 VDDA.t215 VDDA.t214 sky130_fd_pr__pfet_01v8 ad=0.1 pd=0.9 as=0.1 ps=0.9 w=0.5 l=0.15
X45 VOUT+.t31 cap_res_Y.t126 sky130_fd_pr__cap_mim_m3_1 l=2 w=2
X46 VOUT+.t32 cap_res_Y.t125 sky130_fd_pr__cap_mim_m3_1 l=2 w=2
X47 VOUT+.t33 cap_res_Y.t124 sky130_fd_pr__cap_mim_m3_1 l=2 w=2
X48 VOUT-.t30 cap_res_X.t127 sky130_fd_pr__cap_mim_m3_1 l=2 w=2
X49 GNDA.t222 GNDA.t221 V_tail_gate.t0 GNDA.t102 sky130_fd_pr__nfet_01v8 ad=0.6 pd=3.8 as=0.3 ps=1.9 w=1.5 l=0.15
X50 VD1.t8 VIN-.t0 V_p.t12 GNDA.t74 sky130_fd_pr__nfet_01v8 ad=0.3 pd=1.9 as=0.3 ps=1.9 w=1.5 l=0.15
X51 Y.t24 VD4.t35 VD4.t37 VD4.t36 sky130_fd_pr__pfet_01v8 ad=0.7 pd=3.9 as=1.4 ps=7.8 w=3.5 l=0.2
X52 VOUT+.t34 cap_res_Y.t123 sky130_fd_pr__cap_mim_m3_1 l=2 w=2
X53 VOUT+.t35 cap_res_Y.t122 sky130_fd_pr__cap_mim_m3_1 l=2 w=2
X54 V_err_gate.t7 V_err_amp_ref.t1 V_err_mir_p.t15 VDDA.t232 sky130_fd_pr__pfet_01v8 ad=0.1 pd=0.9 as=0.1 ps=0.9 w=0.5 l=0.15
X55 VOUT+.t36 cap_res_Y.t121 sky130_fd_pr__cap_mim_m3_1 l=2 w=2
X56 VOUT+.t37 cap_res_Y.t120 sky130_fd_pr__cap_mim_m3_1 l=2 w=2
X57 V_p.t32 V_tail_gate.t6 GNDA.t149 GNDA.t148 sky130_fd_pr__nfet_01v8 ad=0.5 pd=2.9 as=0.5 ps=2.9 w=2.5 l=0.15
X58 cap_res_Y.t0 Y.t2 GNDA.t7 sky130_fd_pr__res_high_po_1p41 l=1.41
X59 VDDA.t14 Y.t27 VOUT+.t0 VDDA.t13 sky130_fd_pr__pfet_01v8 ad=1.2 pd=6.4 as=1.2 ps=6.4 w=6 l=0.15
X60 X.t8 Vb1.t3 VD2.t21 GNDA.t52 sky130_fd_pr__nfet_01v8 ad=0.3 pd=1.9 as=0.3 ps=1.9 w=1.5 l=0.15
X61 VOUT+.t38 cap_res_Y.t119 sky130_fd_pr__cap_mim_m3_1 l=2 w=2
X62 VOUT-.t31 cap_res_X.t126 sky130_fd_pr__cap_mim_m3_1 l=2 w=2
X63 VOUT+.t39 cap_res_Y.t118 sky130_fd_pr__cap_mim_m3_1 l=2 w=2
X64 VDDA.t46 X.t27 VOUT-.t5 VDDA.t45 sky130_fd_pr__pfet_01v8 ad=1.2 pd=6.4 as=1.2 ps=6.4 w=6 l=0.15
X65 Vb3.t6 Vb2.t4 Vb2_Vb3.t21 Vb2_Vb3.t20 sky130_fd_pr__pfet_01v8 ad=0.12 pd=1 as=0.12 ps=1 w=0.6 l=0.2
X66 VOUT+.t40 cap_res_Y.t117 sky130_fd_pr__cap_mim_m3_1 l=2 w=2
X67 err_amp_out.t11 err_amp_mir.t17 GNDA.t107 GNDA.t106 sky130_fd_pr__nfet_01v8 ad=0.1 pd=0.9 as=0.1 ps=0.9 w=0.5 l=0.15
X68 VDDA.t39 Y.t28 V_CMFB_S4.t8 GNDA.t43 sky130_fd_pr__nfet_01v8 ad=0.6 pd=3.4 as=0.6 ps=3.4 w=3 l=0.15
X69 VOUT+.t41 cap_res_Y.t116 sky130_fd_pr__cap_mim_m3_1 l=2 w=2
X70 VOUT-.t32 cap_res_X.t125 sky130_fd_pr__cap_mim_m3_1 l=2 w=2
X71 VDDA.t213 V_err_gate.t15 V_err_mir_p.t1 VDDA.t212 sky130_fd_pr__pfet_01v8 ad=0.1 pd=0.9 as=0.1 ps=0.9 w=0.5 l=0.15
X72 VOUT-.t33 cap_res_X.t124 sky130_fd_pr__cap_mim_m3_1 l=2 w=2
X73 VOUT+.t42 cap_res_Y.t115 sky130_fd_pr__cap_mim_m3_1 l=2 w=2
X74 GNDA.t220 GNDA.t218 VOUT-.t9 GNDA.t219 sky130_fd_pr__nfet_01v8 ad=2.8 pd=14.8 as=1.4 ps=7.4 w=7 l=0.6
X75 a_59060_4632.t0 V_CMFB_S1.t0 GNDA.t10 sky130_fd_pr__res_xhigh_po_0p35 l=1.77
X76 VOUT-.t34 cap_res_X.t123 sky130_fd_pr__cap_mim_m3_1 l=2 w=2
X77 VD4.t31 Vb3.t8 VDDA.t255 VDDA.t254 sky130_fd_pr__pfet_01v8 ad=0.7 pd=3.9 as=0.7 ps=3.9 w=3.5 l=0.2
X78 VD1.t19 Vb1.t4 Y.t17 GNDA.t93 sky130_fd_pr__nfet_01v8 ad=0.3 pd=1.9 as=0.3 ps=1.9 w=1.5 l=0.15
X79 VDDA.t211 V_err_gate.t16 V_err_p.t15 VDDA.t210 sky130_fd_pr__pfet_01v8 ad=0.1 pd=0.9 as=0.1 ps=0.9 w=0.5 l=0.15
X80 VOUT+.t43 cap_res_Y.t114 sky130_fd_pr__cap_mim_m3_1 l=2 w=2
X81 VOUT-.t35 cap_res_X.t122 sky130_fd_pr__cap_mim_m3_1 l=2 w=2
X82 err_amp_out.t6 V_err_amp_ref.t2 V_err_p.t17 VDDA.t231 sky130_fd_pr__pfet_01v8 ad=0.1 pd=0.9 as=0.1 ps=0.9 w=0.5 l=0.15
X83 VOUT-.t36 cap_res_X.t121 sky130_fd_pr__cap_mim_m3_1 l=2 w=2
X84 VOUT+.t44 cap_res_Y.t113 sky130_fd_pr__cap_mim_m3_1 l=2 w=2
X85 GNDA.t147 V_tail_gate.t7 V_p.t31 GNDA.t146 sky130_fd_pr__nfet_01v8 ad=0.5 pd=2.9 as=0.5 ps=2.9 w=2.5 l=0.15
X86 V_CMFB_S3.t9 Y.t29 GNDA.t20 VDDA.t19 sky130_fd_pr__pfet_01v8 ad=0.4 pd=2.4 as=0.4 ps=2.4 w=2 l=0.15
X87 VOUT-.t37 cap_res_X.t120 sky130_fd_pr__cap_mim_m3_1 l=2 w=2
X88 VDDA.t167 VDDA.t165 GNDA.t63 VDDA.t166 sky130_fd_pr__pfet_01v8 ad=0.8 pd=4.8 as=0.4 ps=2.4 w=2 l=0.15
X89 V_CMFB_S1.t9 X.t28 GNDA.t230 VDDA.t240 sky130_fd_pr__pfet_01v8 ad=0.4 pd=2.4 as=0.4 ps=2.4 w=2 l=0.15
X90 GNDA.t87 err_amp_mir.t18 err_amp_out.t10 GNDA.t86 sky130_fd_pr__nfet_01v8 ad=0.1 pd=0.9 as=0.1 ps=0.9 w=0.5 l=0.15
X91 V_CMFB_S2.t10 X.t29 VDDA.t90 GNDA.t85 sky130_fd_pr__nfet_01v8 ad=0.6 pd=3.4 as=0.6 ps=3.4 w=3 l=0.15
X92 VDDA.t85 Vb3.t9 VD3.t15 VDDA.t84 sky130_fd_pr__pfet_01v8 ad=0.7 pd=3.9 as=0.7 ps=3.9 w=3.5 l=0.2
X93 GNDA.t217 GNDA.t215 VDDA.t222 GNDA.t216 sky130_fd_pr__nfet_01v8 ad=1.2 pd=6.8 as=0.6 ps=3.4 w=3 l=0.15
X94 VOUT+.t45 cap_res_Y.t112 sky130_fd_pr__cap_mim_m3_1 l=2 w=2
X95 VOUT-.t38 cap_res_X.t119 sky130_fd_pr__cap_mim_m3_1 l=2 w=2
X96 VOUT+.t46 cap_res_Y.t111 sky130_fd_pr__cap_mim_m3_1 l=2 w=2
X97 V_err_mir_p.t3 V_err_gate.t17 VDDA.t209 VDDA.t208 sky130_fd_pr__pfet_01v8 ad=0.1 pd=0.9 as=0.1 ps=0.9 w=0.5 l=0.15
X98 VOUT+.t47 cap_res_Y.t110 sky130_fd_pr__cap_mim_m3_1 l=2 w=2
X99 VOUT-.t39 cap_res_X.t118 sky130_fd_pr__cap_mim_m3_1 l=2 w=2
X100 VOUT+.t48 cap_res_Y.t109 sky130_fd_pr__cap_mim_m3_1 l=2 w=2
X101 V_err_p.t18 V_err_amp_ref.t3 err_amp_out.t5 VDDA.t230 sky130_fd_pr__pfet_01v8 ad=0.1 pd=0.9 as=0.1 ps=0.9 w=0.5 l=0.15
X102 V_p_mir.t0 VIN-.t1 V_tail_gate.t1 GNDA.t109 sky130_fd_pr__nfet_01v8 ad=0.3 pd=1.9 as=0.3 ps=1.9 w=1.5 l=0.15
X103 VD2.t8 VIN+.t1 V_p.t14 GNDA.t91 sky130_fd_pr__nfet_01v8 ad=0.3 pd=1.9 as=0.3 ps=1.9 w=1.5 l=0.15
X104 VOUT+.t49 cap_res_Y.t108 sky130_fd_pr__cap_mim_m3_1 l=2 w=2
X105 VOUT+.t10 V_b_2nd_stage.t2 GNDA.t98 GNDA.t97 sky130_fd_pr__nfet_01v8 ad=1.4 pd=7.4 as=1.4 ps=7.4 w=7 l=0.6
X106 VDDA.t55 Vb3.t10 VD4.t12 VDDA.t54 sky130_fd_pr__pfet_01v8 ad=0.7 pd=3.9 as=0.7 ps=3.9 w=3.5 l=0.2
X107 V_err_gate.t3 V_tot.t5 V_err_mir_p.t9 VDDA.t105 sky130_fd_pr__pfet_01v8 ad=0.1 pd=0.9 as=0.1 ps=0.9 w=0.5 l=0.15
X108 V_p.t30 V_tail_gate.t8 GNDA.t145 GNDA.t144 sky130_fd_pr__nfet_01v8 ad=0.5 pd=2.9 as=0.5 ps=2.9 w=2.5 l=0.15
X109 Vb2_Vb3.t10 VDDA.t162 VDDA.t164 VDDA.t163 sky130_fd_pr__pfet_01v8 ad=0.16 pd=1.2 as=0.32 ps=2.4 w=0.8 l=0.2
X110 VDDA.t30 Y.t30 VOUT+.t4 VDDA.t29 sky130_fd_pr__pfet_01v8 ad=1.2 pd=6.4 as=1.2 ps=6.4 w=6 l=0.15
X111 VDDA.t161 VDDA.t159 VOUT+.t12 VDDA.t160 sky130_fd_pr__pfet_01v8 ad=2.4 pd=12.8 as=1.2 ps=6.4 w=6 l=0.15
X112 X.t10 Vb1.t5 VD2.t20 GNDA.t72 sky130_fd_pr__nfet_01v8 ad=0.3 pd=1.9 as=0.3 ps=1.9 w=1.5 l=0.15
X113 VDDA.t97 X.t30 VOUT-.t16 VDDA.t96 sky130_fd_pr__pfet_01v8 ad=1.2 pd=6.4 as=1.2 ps=6.4 w=6 l=0.15
X114 VOUT-.t40 cap_res_X.t117 sky130_fd_pr__cap_mim_m3_1 l=2 w=2
X115 Y.t5 Vb2.t5 VD4.t4 VD4.t3 sky130_fd_pr__pfet_01v8 ad=0.7 pd=3.9 as=0.7 ps=3.9 w=3.5 l=0.2
X116 VOUT-.t41 cap_res_X.t116 sky130_fd_pr__cap_mim_m3_1 l=2 w=2
X117 VOUT-.t42 cap_res_X.t115 sky130_fd_pr__cap_mim_m3_1 l=2 w=2
X118 VOUT-.t43 cap_res_X.t114 sky130_fd_pr__cap_mim_m3_1 l=2 w=2
X119 VOUT+.t50 cap_res_Y.t107 sky130_fd_pr__cap_mim_m3_1 l=2 w=2
X120 VDDA.t18 Y.t31 V_CMFB_S4.t7 GNDA.t19 sky130_fd_pr__nfet_01v8 ad=0.6 pd=3.4 as=0.6 ps=3.4 w=3 l=0.15
X121 VDDA.t203 V_err_gate.t18 V_err_p.t14 VDDA.t202 sky130_fd_pr__pfet_01v8 ad=0.1 pd=0.9 as=0.1 ps=0.9 w=0.5 l=0.15
X122 VOUT+.t51 cap_res_Y.t106 sky130_fd_pr__cap_mim_m3_1 l=2 w=2
X123 VOUT-.t44 cap_res_X.t113 sky130_fd_pr__cap_mim_m3_1 l=2 w=2
X124 VOUT-.t17 GNDA.t212 GNDA.t214 GNDA.t213 sky130_fd_pr__nfet_01v8 ad=1.4 pd=7.4 as=2.8 ps=14.8 w=7 l=0.6
X125 err_amp_mir.t5 VDDA.t156 VDDA.t158 VDDA.t157 sky130_fd_pr__pfet_01v8 ad=0.1 pd=0.9 as=0.2 ps=1.8 w=0.5 l=0.15
X126 VOUT-.t45 cap_res_X.t112 sky130_fd_pr__cap_mim_m3_1 l=2 w=2
X127 VOUT-.t46 cap_res_X.t111 sky130_fd_pr__cap_mim_m3_1 l=2 w=2
X128 GNDA.t143 V_tail_gate.t9 V_p.t29 GNDA.t142 sky130_fd_pr__nfet_01v8 ad=0.5 pd=2.9 as=0.5 ps=2.9 w=2.5 l=0.15
X129 GNDA.t141 V_tail_gate.t10 V_p.t28 GNDA.t140 sky130_fd_pr__nfet_01v8 ad=0.5 pd=2.9 as=0.5 ps=2.9 w=2.5 l=0.15
X130 VD3.t37 Vb2.t6 X.t14 VD3.t36 sky130_fd_pr__pfet_01v8 ad=0.7 pd=3.9 as=0.7 ps=3.9 w=3.5 l=0.2
X131 VOUT-.t47 cap_res_X.t110 sky130_fd_pr__cap_mim_m3_1 l=2 w=2
X132 V_CMFB_S3.t8 Y.t32 GNDA.t44 VDDA.t40 sky130_fd_pr__pfet_01v8 ad=0.4 pd=2.4 as=0.4 ps=2.4 w=2 l=0.15
X133 VOUT-.t48 cap_res_X.t109 sky130_fd_pr__cap_mim_m3_1 l=2 w=2
X134 VOUT-.t49 cap_res_X.t108 sky130_fd_pr__cap_mim_m3_1 l=2 w=2
X135 VOUT-.t50 cap_res_X.t107 sky130_fd_pr__cap_mim_m3_1 l=2 w=2
X136 V_CMFB_S2.t9 X.t31 VDDA.t101 GNDA.t108 sky130_fd_pr__nfet_01v8 ad=0.6 pd=3.4 as=0.6 ps=3.4 w=3 l=0.15
X137 VOUT-.t51 cap_res_X.t106 sky130_fd_pr__cap_mim_m3_1 l=2 w=2
X138 VOUT+.t52 cap_res_Y.t105 sky130_fd_pr__cap_mim_m3_1 l=2 w=2
X139 VOUT-.t4 V_b_2nd_stage.t3 GNDA.t38 GNDA.t37 sky130_fd_pr__nfet_01v8 ad=1.4 pd=7.4 as=1.4 ps=7.4 w=7 l=0.6
X140 VDDA.t242 Vb3.t11 VD4.t26 VDDA.t241 sky130_fd_pr__pfet_01v8 ad=0.7 pd=3.9 as=0.7 ps=3.9 w=3.5 l=0.2
X141 VD3.t17 VDDA.t153 VDDA.t155 VDDA.t154 sky130_fd_pr__pfet_01v8 ad=0.7 pd=3.9 as=1.4 ps=7.8 w=3.5 l=0.2
X142 VD4.t18 Vb2.t7 Y.t15 VD4.t17 sky130_fd_pr__pfet_01v8 ad=0.7 pd=3.9 as=0.7 ps=3.9 w=3.5 l=0.2
X143 VD2.t7 VIN+.t2 V_p.t13 GNDA.t90 sky130_fd_pr__nfet_01v8 ad=0.3 pd=1.9 as=0.3 ps=1.9 w=1.5 l=0.15
X144 V_err_p.t3 V_tot.t6 err_amp_mir.t0 VDDA.t49 sky130_fd_pr__pfet_01v8 ad=0.1 pd=0.9 as=0.1 ps=0.9 w=0.5 l=0.15
X145 VD1.t1 VIN-.t2 V_p.t1 GNDA.t16 sky130_fd_pr__nfet_01v8 ad=0.3 pd=1.9 as=0.3 ps=1.9 w=1.5 l=0.15
X146 VOUT-.t52 cap_res_X.t105 sky130_fd_pr__cap_mim_m3_1 l=2 w=2
X147 Vb2_Vb3.t19 Vb2.t8 Vb3.t5 Vb2_Vb3.t18 sky130_fd_pr__pfet_01v8 ad=0.12 pd=1 as=0.12 ps=1 w=0.6 l=0.2
X148 V_err_gate.t6 V_err_amp_ref.t4 V_err_mir_p.t11 VDDA.t229 sky130_fd_pr__pfet_01v8 ad=0.1 pd=0.9 as=0.1 ps=0.9 w=0.5 l=0.15
X149 X.t6 Vb1.t6 VD2.t19 GNDA.t47 sky130_fd_pr__nfet_01v8 ad=0.3 pd=1.9 as=0.3 ps=1.9 w=1.5 l=0.15
X150 VOUT-.t8 V_b_2nd_stage.t4 GNDA.t78 GNDA.t77 sky130_fd_pr__nfet_01v8 ad=1.4 pd=7.4 as=1.4 ps=7.4 w=7 l=0.6
X151 VOUT-.t53 cap_res_X.t104 sky130_fd_pr__cap_mim_m3_1 l=2 w=2
X152 VDDA.t235 Y.t33 VOUT+.t16 VDDA.t234 sky130_fd_pr__pfet_01v8 ad=1.2 pd=6.4 as=1.2 ps=6.4 w=6 l=0.15
X153 X.t23 Vb1.t7 VD2.t18 GNDA.t237 sky130_fd_pr__nfet_01v8 ad=0.3 pd=1.9 as=0.3 ps=1.9 w=1.5 l=0.15
X154 VOUT+.t53 cap_res_Y.t104 sky130_fd_pr__cap_mim_m3_1 l=2 w=2
X155 VOUT+.t54 cap_res_Y.t103 sky130_fd_pr__cap_mim_m3_1 l=2 w=2
X156 VOUT-.t54 cap_res_X.t103 sky130_fd_pr__cap_mim_m3_1 l=2 w=2
X157 VOUT+.t55 cap_res_Y.t102 sky130_fd_pr__cap_mim_m3_1 l=2 w=2
X158 VOUT+.t56 cap_res_Y.t101 sky130_fd_pr__cap_mim_m3_1 l=2 w=2
X159 VDDA.t98 Y.t34 V_CMFB_S4.t6 GNDA.t101 sky130_fd_pr__nfet_01v8 ad=0.6 pd=3.4 as=0.6 ps=3.4 w=3 l=0.15
X160 VOUT-.t55 cap_res_X.t102 sky130_fd_pr__cap_mim_m3_1 l=2 w=2
X161 VDDA.t87 Vb3.t12 VD4.t14 VDDA.t86 sky130_fd_pr__pfet_01v8 ad=0.7 pd=3.9 as=0.7 ps=3.9 w=3.5 l=0.2
X162 VOUT+.t57 cap_res_Y.t100 sky130_fd_pr__cap_mim_m3_1 l=2 w=2
X163 GNDA.t30 V_b_2nd_stage.t5 VOUT+.t3 GNDA.t29 sky130_fd_pr__nfet_01v8 ad=1.4 pd=7.4 as=1.4 ps=7.4 w=7 l=0.6
X164 VOUT-.t56 cap_res_X.t101 sky130_fd_pr__cap_mim_m3_1 l=2 w=2
X165 VOUT-.t57 cap_res_X.t100 sky130_fd_pr__cap_mim_m3_1 l=2 w=2
X166 VOUT+.t58 cap_res_Y.t99 sky130_fd_pr__cap_mim_m3_1 l=2 w=2
X167 VOUT-.t58 cap_res_X.t99 sky130_fd_pr__cap_mim_m3_1 l=2 w=2
X168 VOUT-.t59 cap_res_X.t98 sky130_fd_pr__cap_mim_m3_1 l=2 w=2
X169 GNDA.t139 V_tail_gate.t11 V_p.t27 GNDA.t138 sky130_fd_pr__nfet_01v8 ad=0.5 pd=2.9 as=0.5 ps=2.9 w=2.5 l=0.15
X170 VOUT-.t60 cap_res_X.t97 sky130_fd_pr__cap_mim_m3_1 l=2 w=2
X171 Vb2.t2 Vb2.t1 VDDA.t103 VDDA.t102 sky130_fd_pr__pfet_01v8 ad=0.126 pd=1.03 as=0.126 ps=1.03 w=0.63 l=0.2
X172 VOUT-.t61 cap_res_X.t96 sky130_fd_pr__cap_mim_m3_1 l=2 w=2
X173 V_b_2nd_stage.t1 a_67950_1836.t0 GNDA.t100 sky130_fd_pr__res_xhigh_po_0p35 l=2.63
X174 VD3.t14 Vb3.t13 VDDA.t52 VDDA.t51 sky130_fd_pr__pfet_01v8 ad=0.7 pd=3.9 as=0.7 ps=3.9 w=3.5 l=0.2
X175 VOUT+.t59 cap_res_Y.t98 sky130_fd_pr__cap_mim_m3_1 l=2 w=2
X176 VOUT-.t62 cap_res_X.t95 sky130_fd_pr__cap_mim_m3_1 l=2 w=2
X177 V_CMFB_S3.t7 Y.t35 GNDA.t22 VDDA.t21 sky130_fd_pr__pfet_01v8 ad=0.4 pd=2.4 as=0.4 ps=2.4 w=2 l=0.15
X178 VOUT-.t63 cap_res_X.t94 sky130_fd_pr__cap_mim_m3_1 l=2 w=2
X179 VOUT-.t64 cap_res_X.t93 sky130_fd_pr__cap_mim_m3_1 l=2 w=2
X180 GNDA.t103 err_amp_mir.t11 err_amp_mir.t12 GNDA.t102 sky130_fd_pr__nfet_01v8 ad=0.1 pd=0.9 as=0.1 ps=0.9 w=0.5 l=0.15
X181 VD4.t23 Vb2.t9 Y.t18 VD4.t22 sky130_fd_pr__pfet_01v8 ad=0.7 pd=3.9 as=0.7 ps=3.9 w=3.5 l=0.2
X182 GNDA.t211 GNDA.t209 err_amp_out.t1 GNDA.t210 sky130_fd_pr__nfet_01v8 ad=0.2 pd=1.8 as=0.1 ps=0.9 w=0.5 l=0.15
X183 X.t4 VD3.t3 VD3.t5 VD3.t4 sky130_fd_pr__pfet_01v8 ad=0.7 pd=3.9 as=1.4 ps=7.8 w=3.5 l=0.2
X184 VOUT+.t60 cap_res_Y.t97 sky130_fd_pr__cap_mim_m3_1 l=2 w=2
X185 GNDA.t61 V_b_2nd_stage.t6 VOUT+.t6 GNDA.t60 sky130_fd_pr__nfet_01v8 ad=1.4 pd=7.4 as=1.4 ps=7.4 w=7 l=0.6
X186 V_CMFB_S2.t8 X.t32 VDDA.t80 GNDA.t82 sky130_fd_pr__nfet_01v8 ad=0.6 pd=3.4 as=0.6 ps=3.4 w=3 l=0.15
X187 Y.t20 GNDA.t206 GNDA.t208 GNDA.t207 sky130_fd_pr__nfet_01v8 ad=0.3 pd=1.9 as=0.6 ps=3.8 w=1.5 l=0.15
X188 Y.t12 Vb1.t8 VD1.t18 GNDA.t62 sky130_fd_pr__nfet_01v8 ad=0.3 pd=1.9 as=0.3 ps=1.9 w=1.5 l=0.15
X189 V_err_p.t13 V_err_gate.t19 VDDA.t207 VDDA.t206 sky130_fd_pr__pfet_01v8 ad=0.1 pd=0.9 as=0.1 ps=0.9 w=0.5 l=0.15
X190 Y.t13 Vb1.t9 VD1.t17 GNDA.t71 sky130_fd_pr__nfet_01v8 ad=0.3 pd=1.9 as=0.3 ps=1.9 w=1.5 l=0.15
X191 VOUT+.t61 cap_res_Y.t96 sky130_fd_pr__cap_mim_m3_1 l=2 w=2
X192 VOUT-.t65 cap_res_X.t92 sky130_fd_pr__cap_mim_m3_1 l=2 w=2
X193 VOUT+.t62 cap_res_Y.t95 sky130_fd_pr__cap_mim_m3_1 l=2 w=2
X194 VD1.t5 VIN-.t3 V_p.t5 GNDA.t34 sky130_fd_pr__nfet_01v8 ad=0.3 pd=1.9 as=0.3 ps=1.9 w=1.5 l=0.15
X195 VD4.t7 Vb3.t14 VDDA.t48 VDDA.t47 sky130_fd_pr__pfet_01v8 ad=0.7 pd=3.9 as=0.7 ps=3.9 w=3.5 l=0.2
X196 VOUT-.t66 cap_res_X.t91 sky130_fd_pr__cap_mim_m3_1 l=2 w=2
X197 VDDA.t152 VDDA.t150 err_amp_out.t0 VDDA.t151 sky130_fd_pr__pfet_01v8 ad=0.2 pd=1.8 as=0.1 ps=0.9 w=0.5 l=0.15
X198 VOUT+.t63 cap_res_Y.t94 sky130_fd_pr__cap_mim_m3_1 l=2 w=2
X199 VD1.t6 VIN-.t4 V_p.t7 GNDA.t51 sky130_fd_pr__nfet_01v8 ad=0.3 pd=1.9 as=0.3 ps=1.9 w=1.5 l=0.15
X200 VD2.t6 VIN+.t3 V_p.t8 GNDA.t53 sky130_fd_pr__nfet_01v8 ad=0.3 pd=1.9 as=0.3 ps=1.9 w=1.5 l=0.15
X201 VOUT-.t67 cap_res_X.t90 sky130_fd_pr__cap_mim_m3_1 l=2 w=2
X202 VOUT+.t64 cap_res_Y.t93 sky130_fd_pr__cap_mim_m3_1 l=2 w=2
X203 V_p_mir.t3 V_tail_gate.t12 GNDA.t137 GNDA.t136 sky130_fd_pr__nfet_01v8 ad=0.5 pd=2.9 as=0.5 ps=2.9 w=2.5 l=0.15
X204 V_err_gate.t9 VDDA.t143 VDDA.t145 VDDA.t144 sky130_fd_pr__pfet_01v8 ad=0.1 pd=0.9 as=0.2 ps=1.8 w=0.5 l=0.15
X205 VOUT+.t65 cap_res_Y.t92 sky130_fd_pr__cap_mim_m3_1 l=2 w=2
X206 VOUT-.t68 cap_res_X.t89 sky130_fd_pr__cap_mim_m3_1 l=2 w=2
X207 V_err_gate.t2 V_tot.t7 V_err_mir_p.t8 VDDA.t104 sky130_fd_pr__pfet_01v8 ad=0.1 pd=0.9 as=0.1 ps=0.9 w=0.5 l=0.15
X208 VD3.t13 Vb3.t15 VDDA.t44 VDDA.t43 sky130_fd_pr__pfet_01v8 ad=0.7 pd=3.9 as=0.7 ps=3.9 w=3.5 l=0.2
X209 X.t5 Vb1.t10 VD2.t17 GNDA.t46 sky130_fd_pr__nfet_01v8 ad=0.3 pd=1.9 as=0.3 ps=1.9 w=1.5 l=0.15
X210 GNDA.t81 X.t33 V_CMFB_S1.t8 VDDA.t77 sky130_fd_pr__pfet_01v8 ad=0.4 pd=2.4 as=0.4 ps=2.4 w=2 l=0.15
X211 VOUT-.t69 cap_res_X.t88 sky130_fd_pr__cap_mim_m3_1 l=2 w=2
X212 VOUT+.t66 cap_res_Y.t91 sky130_fd_pr__cap_mim_m3_1 l=2 w=2
X213 VOUT+.t67 cap_res_Y.t90 sky130_fd_pr__cap_mim_m3_1 l=2 w=2
X214 VDDA.t26 Y.t36 VOUT+.t1 VDDA.t25 sky130_fd_pr__pfet_01v8 ad=1.2 pd=6.4 as=1.2 ps=6.4 w=6 l=0.15
X215 VD4.t9 Vb2.t10 Y.t7 VD4.t8 sky130_fd_pr__pfet_01v8 ad=0.7 pd=3.9 as=0.7 ps=3.9 w=3.5 l=0.2
X216 VDDA.t221 GNDA.t203 GNDA.t205 GNDA.t204 sky130_fd_pr__nfet_01v8 ad=0.6 pd=3.4 as=1.2 ps=6.8 w=3 l=0.15
X217 VOUT+.t68 cap_res_Y.t89 sky130_fd_pr__cap_mim_m3_1 l=2 w=2
X218 VOUT-.t70 cap_res_X.t87 sky130_fd_pr__cap_mim_m3_1 l=2 w=2
X219 VOUT-.t71 cap_res_X.t86 sky130_fd_pr__cap_mim_m3_1 l=2 w=2
X220 VOUT-.t72 cap_res_X.t85 sky130_fd_pr__cap_mim_m3_1 l=2 w=2
X221 GNDA.t202 GNDA.t200 GNDA.t202 GNDA.t201 sky130_fd_pr__nfet_01v8 ad=0.2 pd=1.4 as=0 ps=0 w=1 l=0.15
X222 V_p.t4 VIN-.t5 VD1.t4 GNDA.t31 sky130_fd_pr__nfet_01v8 ad=0.3 pd=1.9 as=0.3 ps=1.9 w=1.5 l=0.15
X223 VDDA.t205 V_err_gate.t20 V_err_p.t12 VDDA.t204 sky130_fd_pr__pfet_01v8 ad=0.1 pd=0.9 as=0.1 ps=0.9 w=0.5 l=0.15
X224 VOUT-.t73 cap_res_X.t84 sky130_fd_pr__cap_mim_m3_1 l=2 w=2
X225 VOUT+.t69 cap_res_Y.t88 sky130_fd_pr__cap_mim_m3_1 l=2 w=2
X226 VOUT+.t70 cap_res_Y.t87 sky130_fd_pr__cap_mim_m3_1 l=2 w=2
X227 VOUT+.t71 cap_res_Y.t86 sky130_fd_pr__cap_mim_m3_1 l=2 w=2
X228 GNDA.t135 V_tail_gate.t13 V_p.t26 GNDA.t134 sky130_fd_pr__nfet_01v8 ad=0.5 pd=2.9 as=0.5 ps=2.9 w=2.5 l=0.15
X229 X.t3 Vb2.t11 VD3.t35 VD3.t34 sky130_fd_pr__pfet_01v8 ad=0.7 pd=3.9 as=0.7 ps=3.9 w=3.5 l=0.2
X230 VOUT-.t74 cap_res_X.t83 sky130_fd_pr__cap_mim_m3_1 l=2 w=2
X231 GNDA.t133 V_tail_gate.t14 V_p.t25 GNDA.t132 sky130_fd_pr__nfet_01v8 ad=0.5 pd=2.9 as=0.5 ps=2.9 w=2.5 l=0.15
X232 VOUT-.t14 X.t34 VDDA.t94 VDDA.t93 sky130_fd_pr__pfet_01v8 ad=1.2 pd=6.4 as=1.2 ps=6.4 w=6 l=0.15
X233 VOUT-.t75 cap_res_X.t82 sky130_fd_pr__cap_mim_m3_1 l=2 w=2
X234 VOUT-.t76 cap_res_X.t81 sky130_fd_pr__cap_mim_m3_1 l=2 w=2
X235 VDDA.t149 VDDA.t146 VDDA.t148 VDDA.t147 sky130_fd_pr__pfet_01v8 ad=0.252 pd=2.06 as=0 ps=0 w=0.63 l=0.2
X236 VD4.t30 Vb3.t16 VDDA.t253 VDDA.t252 sky130_fd_pr__pfet_01v8 ad=0.7 pd=3.9 as=0.7 ps=3.9 w=3.5 l=0.2
X237 V_CMFB_S4.t5 Y.t37 VDDA.t42 GNDA.t50 sky130_fd_pr__nfet_01v8 ad=0.6 pd=3.4 as=0.6 ps=3.4 w=3 l=0.15
X238 V_CMFB_S2.t7 X.t35 VDDA.t73 GNDA.t79 sky130_fd_pr__nfet_01v8 ad=0.6 pd=3.4 as=0.6 ps=3.4 w=3 l=0.15
X239 VOUT-.t77 cap_res_X.t80 sky130_fd_pr__cap_mim_m3_1 l=2 w=2
X240 VOUT-.t78 cap_res_X.t79 sky130_fd_pr__cap_mim_m3_1 l=2 w=2
X241 Y.t16 Vb2.t12 VD4.t20 VD4.t19 sky130_fd_pr__pfet_01v8 ad=0.7 pd=3.9 as=0.7 ps=3.9 w=3.5 l=0.2
X242 VOUT+.t72 cap_res_Y.t85 sky130_fd_pr__cap_mim_m3_1 l=2 w=2
X243 VOUT-.t79 cap_res_X.t78 sky130_fd_pr__cap_mim_m3_1 l=2 w=2
X244 VOUT+.t73 cap_res_Y.t84 sky130_fd_pr__cap_mim_m3_1 l=2 w=2
X245 VOUT+.t74 cap_res_Y.t83 sky130_fd_pr__cap_mim_m3_1 l=2 w=2
X246 V_err_mir_p.t0 V_err_gate.t21 VDDA.t201 VDDA.t200 sky130_fd_pr__pfet_01v8 ad=0.1 pd=0.9 as=0.1 ps=0.9 w=0.5 l=0.15
X247 VOUT-.t80 cap_res_X.t77 sky130_fd_pr__cap_mim_m3_1 l=2 w=2
X248 Y.t10 Vb1.t11 VD1.t16 GNDA.t59 sky130_fd_pr__nfet_01v8 ad=0.3 pd=1.9 as=0.3 ps=1.9 w=1.5 l=0.15
X249 VOUT+.t75 cap_res_Y.t82 sky130_fd_pr__cap_mim_m3_1 l=2 w=2
X250 VD2.t11 GNDA.t197 GNDA.t199 GNDA.t198 sky130_fd_pr__nfet_01v8 ad=0.3 pd=1.9 as=0.6 ps=3.8 w=1.5 l=0.15
X251 V_err_p.t2 V_tot.t8 err_amp_mir.t3 VDDA.t68 sky130_fd_pr__pfet_01v8 ad=0.1 pd=0.9 as=0.1 ps=0.9 w=0.5 l=0.15
X252 VOUT-.t81 cap_res_X.t76 sky130_fd_pr__cap_mim_m3_1 l=2 w=2
X253 VD2.t5 VIN+.t4 V_p.t40 GNDA.t246 sky130_fd_pr__nfet_01v8 ad=0.3 pd=1.9 as=0.3 ps=1.9 w=1.5 l=0.15
X254 X.t22 Vb2.t13 VD3.t33 VD3.t32 sky130_fd_pr__pfet_01v8 ad=0.7 pd=3.9 as=0.7 ps=3.9 w=3.5 l=0.2
X255 VOUT-.t82 cap_res_X.t75 sky130_fd_pr__cap_mim_m3_1 l=2 w=2
X256 VDDA.t61 Vb3.t17 Vb2_Vb3.t7 VDDA.t60 sky130_fd_pr__pfet_01v8 ad=0.16 pd=1.2 as=0.16 ps=1.2 w=0.8 l=0.2
X257 VOUT+.t76 cap_res_Y.t81 sky130_fd_pr__cap_mim_m3_1 l=2 w=2
X258 GNDA.t23 X.t36 V_CMFB_S1.t7 VDDA.t22 sky130_fd_pr__pfet_01v8 ad=0.4 pd=2.4 as=0.4 ps=2.4 w=2 l=0.15
X259 X.t21 GNDA.t194 GNDA.t196 GNDA.t195 sky130_fd_pr__nfet_01v8 ad=0.3 pd=1.9 as=0.6 ps=3.8 w=1.5 l=0.15
X260 VOUT-.t83 cap_res_X.t74 sky130_fd_pr__cap_mim_m3_1 l=2 w=2
X261 VD4.t13 Vb3.t18 VDDA.t59 VDDA.t58 sky130_fd_pr__pfet_01v8 ad=0.7 pd=3.9 as=0.7 ps=3.9 w=3.5 l=0.2
X262 VOUT-.t84 cap_res_X.t73 sky130_fd_pr__cap_mim_m3_1 l=2 w=2
X263 a_68230_5092.t0 V_CMFB_S4.t10 GNDA.t234 sky130_fd_pr__res_xhigh_po_0p35 l=4.07
X264 VOUT+.t77 cap_res_Y.t80 sky130_fd_pr__cap_mim_m3_1 l=2 w=2
X265 VOUT+.t78 cap_res_Y.t79 sky130_fd_pr__cap_mim_m3_1 l=2 w=2
X266 VOUT+.t79 cap_res_Y.t78 sky130_fd_pr__cap_mim_m3_1 l=2 w=2
X267 VOUT+.t80 cap_res_Y.t77 sky130_fd_pr__cap_mim_m3_1 l=2 w=2
X268 VOUT-.t85 cap_res_X.t72 sky130_fd_pr__cap_mim_m3_1 l=2 w=2
X269 VOUT+.t81 cap_res_Y.t76 sky130_fd_pr__cap_mim_m3_1 l=2 w=2
X270 VOUT+.t82 cap_res_Y.t75 sky130_fd_pr__cap_mim_m3_1 l=2 w=2
X271 V_p.t35 GNDA.t191 GNDA.t193 GNDA.t192 sky130_fd_pr__nfet_01v8 ad=0.2 pd=1.4 as=0.4 ps=2.8 w=1 l=0.15
X272 VDDA.t142 VDDA.t140 Vb2.t0 VDDA.t141 sky130_fd_pr__pfet_01v8 ad=0.252 pd=2.06 as=0.126 ps=1.03 w=0.63 l=0.2
X273 a_58940_5092.t0 V_tot.t2 GNDA.t84 sky130_fd_pr__res_xhigh_po_0p35 l=4.07
X274 GNDA.t131 V_tail_gate.t15 V_p.t24 GNDA.t130 sky130_fd_pr__nfet_01v8 ad=0.5 pd=2.9 as=0.5 ps=2.9 w=2.5 l=0.15
X275 VDDA.t244 Vb3.t19 VD3.t12 VDDA.t243 sky130_fd_pr__pfet_01v8 ad=0.7 pd=3.9 as=0.7 ps=3.9 w=3.5 l=0.2
X276 VOUT-.t86 cap_res_X.t71 sky130_fd_pr__cap_mim_m3_1 l=2 w=2
X277 VOUT+.t83 cap_res_Y.t74 sky130_fd_pr__cap_mim_m3_1 l=2 w=2
X278 VDDA.t139 VDDA.t137 V_err_gate.t10 VDDA.t138 sky130_fd_pr__pfet_01v8 ad=0.2 pd=1.8 as=0.1 ps=0.9 w=0.5 l=0.15
X279 Y.t14 Vb2.t14 VD4.t16 VD4.t15 sky130_fd_pr__pfet_01v8 ad=0.7 pd=3.9 as=0.7 ps=3.9 w=3.5 l=0.2
X280 VOUT-.t1 X.t37 VDDA.t6 VDDA.t5 sky130_fd_pr__pfet_01v8 ad=1.2 pd=6.4 as=1.2 ps=6.4 w=6 l=0.15
X281 V_CMFB_S3.t6 Y.t38 GNDA.t21 VDDA.t20 sky130_fd_pr__pfet_01v8 ad=0.4 pd=2.4 as=0.4 ps=2.4 w=2 l=0.15
X282 V_p.t37 Vb1.t0 Vb1.t1 GNDA.t235 sky130_fd_pr__nfet_01v8 ad=0.4 pd=2.8 as=0.4 ps=2.8 w=1 l=2.3
X283 VOUT-.t87 cap_res_X.t70 sky130_fd_pr__cap_mim_m3_1 l=2 w=2
X284 VOUT+.t84 cap_res_Y.t73 sky130_fd_pr__cap_mim_m3_1 l=2 w=2
X285 VOUT-.t88 cap_res_X.t69 sky130_fd_pr__cap_mim_m3_1 l=2 w=2
X286 VOUT+.t85 cap_res_Y.t72 sky130_fd_pr__cap_mim_m3_1 l=2 w=2
X287 VOUT+.t86 cap_res_Y.t71 sky130_fd_pr__cap_mim_m3_1 l=2 w=2
X288 VOUT-.t89 cap_res_X.t68 sky130_fd_pr__cap_mim_m3_1 l=2 w=2
X289 GNDA.t42 err_amp_mir.t9 err_amp_mir.t10 GNDA.t41 sky130_fd_pr__nfet_01v8 ad=0.1 pd=0.9 as=0.1 ps=0.9 w=0.5 l=0.15
X290 V_CMFB_S4.t4 Y.t39 VDDA.t64 GNDA.t67 sky130_fd_pr__nfet_01v8 ad=0.6 pd=3.4 as=0.6 ps=3.4 w=3 l=0.15
X291 VOUT-.t90 cap_res_X.t67 sky130_fd_pr__cap_mim_m3_1 l=2 w=2
X292 GNDA.t190 GNDA.t188 VDDA.t220 GNDA.t189 sky130_fd_pr__nfet_01v8 ad=1.2 pd=6.8 as=0.6 ps=3.4 w=3 l=0.15
X293 V_CMFB_S2.t6 X.t38 VDDA.t238 GNDA.t228 sky130_fd_pr__nfet_01v8 ad=0.6 pd=3.4 as=0.6 ps=3.4 w=3 l=0.15
X294 VOUT+.t87 cap_res_Y.t70 sky130_fd_pr__cap_mim_m3_1 l=2 w=2
X295 V_err_p.t11 V_err_gate.t22 VDDA.t199 VDDA.t198 sky130_fd_pr__pfet_01v8 ad=0.1 pd=0.9 as=0.1 ps=0.9 w=0.5 l=0.15
X296 Y.t8 Vb1.t12 VD1.t15 GNDA.t55 sky130_fd_pr__nfet_01v8 ad=0.3 pd=1.9 as=0.3 ps=1.9 w=1.5 l=0.15
X297 V_err_p.t10 V_err_gate.t23 VDDA.t197 VDDA.t196 sky130_fd_pr__pfet_01v8 ad=0.1 pd=0.9 as=0.1 ps=0.9 w=0.5 l=0.15
X298 VOUT+.t88 cap_res_Y.t69 sky130_fd_pr__cap_mim_m3_1 l=2 w=2
X299 VOUT+.t89 cap_res_Y.t68 sky130_fd_pr__cap_mim_m3_1 l=2 w=2
X300 VD1.t21 VIN-.t6 V_p.t39 GNDA.t240 sky130_fd_pr__nfet_01v8 ad=0.3 pd=1.9 as=0.3 ps=1.9 w=1.5 l=0.15
X301 VDDA.t248 Vb3.t20 VD3.t11 VDDA.t247 sky130_fd_pr__pfet_01v8 ad=0.7 pd=3.9 as=0.7 ps=3.9 w=3.5 l=0.2
X302 VOUT-.t91 cap_res_X.t66 sky130_fd_pr__cap_mim_m3_1 l=2 w=2
X303 Y.t0 Vb2.t15 VD4.t1 VD4.t0 sky130_fd_pr__pfet_01v8 ad=0.7 pd=3.9 as=0.7 ps=3.9 w=3.5 l=0.2
X304 VDDA.t63 Y.t40 VOUT+.t7 VDDA.t62 sky130_fd_pr__pfet_01v8 ad=1.2 pd=6.4 as=1.2 ps=6.4 w=6 l=0.15
X305 GNDA.t229 X.t39 V_CMFB_S1.t6 VDDA.t239 sky130_fd_pr__pfet_01v8 ad=0.4 pd=2.4 as=0.4 ps=2.4 w=2 l=0.15
X306 VOUT-.t92 cap_res_X.t65 sky130_fd_pr__cap_mim_m3_1 l=2 w=2
X307 err_amp_out.t9 err_amp_mir.t19 GNDA.t14 GNDA.t13 sky130_fd_pr__nfet_01v8 ad=0.1 pd=0.9 as=0.1 ps=0.9 w=0.5 l=0.15
X308 VOUT+.t90 cap_res_Y.t67 sky130_fd_pr__cap_mim_m3_1 l=2 w=2
X309 cap_res_X.t0 X.t1 GNDA.t2 sky130_fd_pr__res_high_po_1p41 l=1.41
X310 VOUT+.t91 cap_res_Y.t66 sky130_fd_pr__cap_mim_m3_1 l=2 w=2
X311 VOUT+.t92 cap_res_Y.t65 sky130_fd_pr__cap_mim_m3_1 l=2 w=2
X312 VD1.t14 Vb1.t13 Y.t9 GNDA.t58 sky130_fd_pr__nfet_01v8 ad=0.3 pd=1.9 as=0.3 ps=1.9 w=1.5 l=0.15
X313 VDDA.t136 VDDA.t134 V_err_p.t6 VDDA.t135 sky130_fd_pr__pfet_01v8 ad=0.2 pd=1.8 as=0.1 ps=0.9 w=0.5 l=0.15
X314 GNDA.t187 GNDA.t185 VD1.t10 GNDA.t186 sky130_fd_pr__nfet_01v8 ad=0.6 pd=3.8 as=0.3 ps=1.9 w=1.5 l=0.15
X315 VD3.t31 Vb2.t16 X.t19 VD3.t30 sky130_fd_pr__pfet_01v8 ad=0.7 pd=3.9 as=0.7 ps=3.9 w=3.5 l=0.2
X316 VOUT-.t93 cap_res_X.t64 sky130_fd_pr__cap_mim_m3_1 l=2 w=2
X317 VOUT+.t93 cap_res_Y.t64 sky130_fd_pr__cap_mim_m3_1 l=2 w=2
X318 VOUT-.t94 cap_res_X.t63 sky130_fd_pr__cap_mim_m3_1 l=2 w=2
X319 VOUT+.t94 cap_res_Y.t63 sky130_fd_pr__cap_mim_m3_1 l=2 w=2
X320 GNDA.t129 V_tail_gate.t16 V_p_mir.t2 GNDA.t128 sky130_fd_pr__nfet_01v8 ad=0.5 pd=2.9 as=0.5 ps=2.9 w=2.5 l=0.15
X321 V_err_mir_p.t13 V_err_amp_ref.t5 V_err_gate.t5 VDDA.t228 sky130_fd_pr__pfet_01v8 ad=0.1 pd=0.9 as=0.1 ps=0.9 w=0.5 l=0.15
X322 VOUT-.t95 cap_res_X.t62 sky130_fd_pr__cap_mim_m3_1 l=2 w=2
X323 GNDA.t127 V_tail_gate.t17 V_p.t23 GNDA.t126 sky130_fd_pr__nfet_01v8 ad=0.5 pd=2.9 as=0.5 ps=2.9 w=2.5 l=0.15
X324 VOUT-.t96 cap_res_X.t61 sky130_fd_pr__cap_mim_m3_1 l=2 w=2
X325 V_err_mir_p.t4 V_tot.t9 V_err_gate.t0 VDDA.t38 sky130_fd_pr__pfet_01v8 ad=0.1 pd=0.9 as=0.1 ps=0.9 w=0.5 l=0.15
X326 VDDA.t251 Vb3.t21 VD4.t29 VDDA.t250 sky130_fd_pr__pfet_01v8 ad=0.7 pd=3.9 as=0.7 ps=3.9 w=3.5 l=0.2
X327 GNDA.t184 GNDA.t182 X.t20 GNDA.t183 sky130_fd_pr__nfet_01v8 ad=0.6 pd=3.8 as=0.3 ps=1.9 w=1.5 l=0.15
X328 VOUT-.t97 cap_res_X.t60 sky130_fd_pr__cap_mim_m3_1 l=2 w=2
X329 VOUT-.t11 X.t40 VDDA.t79 VDDA.t78 sky130_fd_pr__pfet_01v8 ad=1.2 pd=6.4 as=1.2 ps=6.4 w=6 l=0.15
X330 VOUT-.t98 cap_res_X.t59 sky130_fd_pr__cap_mim_m3_1 l=2 w=2
X331 GNDA.t105 err_amp_mir.t20 err_amp_out.t8 GNDA.t104 sky130_fd_pr__nfet_01v8 ad=0.1 pd=0.9 as=0.1 ps=0.9 w=0.5 l=0.15
X332 V_b_2nd_stage.t0 a_59460_1836.t0 GNDA.t33 sky130_fd_pr__res_xhigh_po_0p35 l=2.63
X333 V_CMFB_S4.t3 Y.t41 VDDA.t110 GNDA.t112 sky130_fd_pr__nfet_01v8 ad=0.6 pd=3.4 as=0.6 ps=3.4 w=3 l=0.15
X334 VDDA.t133 VDDA.t131 VD3.t16 VDDA.t132 sky130_fd_pr__pfet_01v8 ad=1.4 pd=7.8 as=0.7 ps=3.9 w=3.5 l=0.2
X335 Y.t3 Vb1.t14 VD1.t13 GNDA.t12 sky130_fd_pr__nfet_01v8 ad=0.3 pd=1.9 as=0.3 ps=1.9 w=1.5 l=0.15
X336 V_err_mir_p.t17 V_err_gate.t24 VDDA.t195 VDDA.t194 sky130_fd_pr__pfet_01v8 ad=0.1 pd=0.9 as=0.1 ps=0.9 w=0.5 l=0.15
X337 VD3.t29 Vb2.t17 X.t16 VD3.t28 sky130_fd_pr__pfet_01v8 ad=0.7 pd=3.9 as=0.7 ps=3.9 w=3.5 l=0.2
X338 VOUT+.t95 cap_res_Y.t62 sky130_fd_pr__cap_mim_m3_1 l=2 w=2
X339 VOUT+.t96 cap_res_Y.t61 sky130_fd_pr__cap_mim_m3_1 l=2 w=2
X340 VOUT-.t99 cap_res_X.t58 sky130_fd_pr__cap_mim_m3_1 l=2 w=2