* NGSPICE file created from two_stage_opamp_dummy_magic_20.ext - technology: sky130A

.subckt two_stage_opamp_dummy_magic_20 VDDA V_CMFB_S1 V_CMFB_S3 Vb3 Vb2 Vb1 V_CMFB_S2
+ V_CMFB_S4 VOUT- VOUT+ V_tail_gate V_err_amp_ref V_err_gate VIN+ VIN- GNDA
X0 VD4 Vb2 Y VD4 sky130_fd_pr__pfet_01v8 ad=0.7 pd=3.9 as=0.7 ps=3.9 w=3.5 l=0.2
X1 VD2 VIN+ V_source GNDA sky130_fd_pr__nfet_01v8 ad=0.3 pd=1.9 as=0.3 ps=1.9 w=1.5 l=0.15
X2 VDDA Vb3 VD3 VDDA sky130_fd_pr__pfet_01v8 ad=0.7 pd=3.9 as=0.7 ps=3.9 w=3.5 l=0.2
X3 VOUT- GNDA GNDA GNDA sky130_fd_pr__nfet_01v8 ad=1.4 pd=7.4 as=2.8 ps=14.8 w=7 l=0.6
X4 VOUT- cap_res_X sky130_fd_pr__cap_mim_m3_1 l=2 w=2
X5 VOUT+ cap_res_Y sky130_fd_pr__cap_mim_m3_1 l=2 w=2
X6 VDDA V_err_gate V_er_mir_p VDDA sky130_fd_pr__pfet_01v8 ad=0.1 pd=0.9 as=0.1 ps=0.9 w=0.5 l=0.15
X7 VD2 Vb1 Y GNDA sky130_fd_pr__nfet_01v8 ad=0.3 pd=1.9 as=0.3 ps=1.9 w=1.5 l=0.15
X8 VOUT- cap_res_X sky130_fd_pr__cap_mim_m3_1 l=2 w=2
X9 VOUT+ V_b_2nd_stage GNDA GNDA sky130_fd_pr__nfet_01v8 ad=1.4 pd=7.4 as=1.4 ps=7.4 w=7 l=0.6
X10 VOUT+ cap_res_Y sky130_fd_pr__cap_mim_m3_1 l=2 w=2
X11 VOUT- cap_res_X sky130_fd_pr__cap_mim_m3_1 l=2 w=2
X12 VD1 Vb1 X GNDA sky130_fd_pr__nfet_01v8 ad=0.3 pd=1.9 as=0.3 ps=1.9 w=1.5 l=0.15
X13 V_CMFB_S4 Y VDDA GNDA sky130_fd_pr__nfet_01v8 ad=0.6 pd=3.4 as=0.6 ps=3.4 w=3 l=0.15
X14 VOUT+ cap_res_Y sky130_fd_pr__cap_mim_m3_1 l=2 w=2
X15 err_amp_out V_err_amp_ref V_err_p VDDA sky130_fd_pr__pfet_01v8 ad=0.1 pd=0.9 as=0.1 ps=0.9 w=0.5 l=0.15
X16 VDDA X VOUT- VDDA sky130_fd_pr__pfet_01v8 ad=1.2 pd=6.4 as=1.2 ps=6.4 w=6 l=0.15
X17 VOUT+ cap_res_Y sky130_fd_pr__cap_mim_m3_1 l=2 w=2
X18 VDDA X V_CMFB_S2 GNDA sky130_fd_pr__nfet_01v8 ad=0.6 pd=3.4 as=0.6 ps=3.4 w=3 l=0.15
X19 VDDA VDDA VD3 VDDA sky130_fd_pr__pfet_01v8 ad=1.4 pd=7.8 as=0.7 ps=3.9 w=3.5 l=0.2
X20 VOUT- cap_res_X sky130_fd_pr__cap_mim_m3_1 l=2 w=2
X21 VOUT+ cap_res_Y sky130_fd_pr__cap_mim_m3_1 l=2 w=2
X22 GNDA err_amp_mir err_amp_mir GNDA sky130_fd_pr__nfet_01v8 ad=0.1 pd=0.9 as=0.1 ps=0.9 w=0.5 l=0.15
X23 GNDA GNDA GNDA GNDA sky130_fd_pr__nfet_01v8 ad=1 pd=5.8 as=48.8 ps=279.2 w=2.5 l=0.15
X24 VDDA Y VOUT+ VDDA sky130_fd_pr__pfet_01v8 ad=1.2 pd=6.4 as=1.2 ps=6.4 w=6 l=0.15
X25 GNDA GNDA err_amp_mir GNDA sky130_fd_pr__nfet_01v8 ad=0.2 pd=1.8 as=0.1 ps=0.9 w=0.5 l=0.15
X26 Y Vb1 VD2 GNDA sky130_fd_pr__nfet_01v8 ad=0.3 pd=1.9 as=0.3 ps=1.9 w=1.5 l=0.15
X27 Vb1 Vb1 a_113080_1090# GNDA sky130_fd_pr__nfet_01v8 ad=0.3 pd=1.9 as=0.3 ps=1.9 w=1.5 l=0.15
X28 V_er_mir_p V_err_gate VDDA VDDA sky130_fd_pr__pfet_01v8 ad=0.1 pd=0.9 as=0.1 ps=0.9 w=0.5 l=0.15
X29 V_source VIN- VD1 GNDA sky130_fd_pr__nfet_01v8 ad=0.3 pd=1.9 as=0.3 ps=1.9 w=1.5 l=0.15
X30 Vb2_2 Vb2_2 Vb2_2 Vb2_2 sky130_fd_pr__pfet_01v8 ad=0.7 pd=3.9 as=4.92 ps=27.8 w=3.5 l=0.2
X31 VDDA VDDA V_err_gate VDDA sky130_fd_pr__pfet_01v8 ad=0.2 pd=1.8 as=0.1 ps=0.9 w=0.5 l=0.15
X32 VOUT+ cap_res_Y sky130_fd_pr__cap_mim_m3_1 l=2 w=2
X33 a_118270_3858# V_tot GNDA sky130_fd_pr__res_xhigh_po_0p35 l=1.75
X34 VD4 Vb3 VDDA VDDA sky130_fd_pr__pfet_01v8 ad=0.7 pd=3.9 as=0.7 ps=3.9 w=3.5 l=0.2
X35 a_108900_3858# V_CMFB_S4 GNDA sky130_fd_pr__res_xhigh_po_0p35 l=1.75
X36 VD4 Vb2 Y VD4 sky130_fd_pr__pfet_01v8 ad=0.7 pd=3.9 as=0.7 ps=3.9 w=3.5 l=0.2
X37 VOUT+ cap_res_Y sky130_fd_pr__cap_mim_m3_1 l=2 w=2
X38 VOUT- cap_res_X sky130_fd_pr__cap_mim_m3_1 l=2 w=2
X39 V_CMFB_S3 Y GNDA VDDA sky130_fd_pr__pfet_01v8 ad=0.4 pd=2.4 as=0.4 ps=2.4 w=2 l=0.15
X40 VOUT- cap_res_X sky130_fd_pr__cap_mim_m3_1 l=2 w=2
X41 VOUT+ cap_res_Y sky130_fd_pr__cap_mim_m3_1 l=2 w=2
X42 VOUT+ cap_res_Y sky130_fd_pr__cap_mim_m3_1 l=2 w=2
X43 VOUT+ cap_res_Y sky130_fd_pr__cap_mim_m3_1 l=2 w=2
X44 VOUT- cap_res_X sky130_fd_pr__cap_mim_m3_1 l=2 w=2
X45 VOUT- cap_res_X sky130_fd_pr__cap_mim_m3_1 l=2 w=2
X46 V_source V_tail_gate GNDA GNDA sky130_fd_pr__nfet_01v8 ad=0.5 pd=2.9 as=0.5 ps=2.9 w=2.5 l=0.15
X47 V_b_2nd_stage a_109470_846# GNDA sky130_fd_pr__res_xhigh_po_0p35 l=2.63
X48 VD3 Vb2 X VD3 sky130_fd_pr__pfet_01v8 ad=0.7 pd=3.9 as=0.7 ps=3.9 w=3.5 l=0.2
X49 VDDA V_err_gate V_err_p VDDA sky130_fd_pr__pfet_01v8 ad=0.1 pd=0.9 as=0.1 ps=0.9 w=0.5 l=0.15
X50 VD1 Vb1 X GNDA sky130_fd_pr__nfet_01v8 ad=0.3 pd=1.9 as=0.3 ps=1.9 w=1.5 l=0.15
X51 VOUT+ cap_res_Y sky130_fd_pr__cap_mim_m3_1 l=2 w=2
X52 V_CMFB_S4 Y VDDA GNDA sky130_fd_pr__nfet_01v8 ad=0.6 pd=3.4 as=0.6 ps=3.4 w=3 l=0.15
X53 GNDA GNDA VDDA GNDA sky130_fd_pr__nfet_01v8 ad=1.2 pd=6.8 as=0.6 ps=3.4 w=3 l=0.15
X54 VD4 Vb3 VDDA VDDA sky130_fd_pr__pfet_01v8 ad=0.7 pd=3.9 as=0.7 ps=3.9 w=3.5 l=0.2
X55 err_amp_mir VDDA VDDA VDDA sky130_fd_pr__pfet_01v8 ad=0.1 pd=0.9 as=0.2 ps=1.8 w=0.5 l=0.15
X56 VOUT+ cap_res_Y sky130_fd_pr__cap_mim_m3_1 l=2 w=2
X57 VOUT+ cap_res_Y sky130_fd_pr__cap_mim_m3_1 l=2 w=2
X58 VOUT+ cap_res_Y sky130_fd_pr__cap_mim_m3_1 l=2 w=2
X59 VOUT+ cap_res_Y sky130_fd_pr__cap_mim_m3_1 l=2 w=2
X60 VOUT+ cap_res_Y sky130_fd_pr__cap_mim_m3_1 l=2 w=2
X61 VOUT+ cap_res_Y sky130_fd_pr__cap_mim_m3_1 l=2 w=2
X62 VOUT- cap_res_X sky130_fd_pr__cap_mim_m3_1 l=2 w=2
X63 VDDA X V_CMFB_S2 GNDA sky130_fd_pr__nfet_01v8 ad=0.6 pd=3.4 as=0.6 ps=3.4 w=3 l=0.15
X64 VOUT+ cap_res_Y sky130_fd_pr__cap_mim_m3_1 l=2 w=2
X65 V_b_2nd_stage a_117950_846# GNDA sky130_fd_pr__res_xhigh_po_0p35 l=2.63
X66 VDDA X V_CMFB_S2 GNDA sky130_fd_pr__nfet_01v8 ad=0.6 pd=3.4 as=0.6 ps=3.4 w=3 l=0.15
X67 VOUT+ cap_res_Y sky130_fd_pr__cap_mim_m3_1 l=2 w=2
X68 VDDA Y VOUT+ VDDA sky130_fd_pr__pfet_01v8 ad=1.2 pd=6.4 as=1.2 ps=6.4 w=6 l=0.15
X69 GNDA err_amp_mir err_amp_out GNDA sky130_fd_pr__nfet_01v8 ad=0.1 pd=0.9 as=0.1 ps=0.9 w=0.5 l=0.15
X70 GNDA V_tail_gate V_source GNDA sky130_fd_pr__nfet_01v8 ad=0.5 pd=2.9 as=0.5 ps=2.9 w=2.5 l=0.15
X71 V_err_p VDDA VDDA VDDA sky130_fd_pr__pfet_01v8 ad=0.1 pd=0.9 as=0.2 ps=1.8 w=0.5 l=0.15
X72 VOUT- cap_res_X sky130_fd_pr__cap_mim_m3_1 l=2 w=2
X73 V_source VIN- VD1 GNDA sky130_fd_pr__nfet_01v8 ad=0.3 pd=1.9 as=0.3 ps=1.9 w=1.5 l=0.15
X74 VOUT+ cap_res_Y sky130_fd_pr__cap_mim_m3_1 l=2 w=2
X75 V_er_mir_p V_err_amp_ref V_err_gate VDDA sky130_fd_pr__pfet_01v8 ad=0.1 pd=0.9 as=0.1 ps=0.9 w=0.5 l=0.15
X76 VOUT+ cap_res_Y sky130_fd_pr__cap_mim_m3_1 l=2 w=2
X77 VOUT+ cap_res_Y sky130_fd_pr__cap_mim_m3_1 l=2 w=2
X78 VOUT+ cap_res_Y sky130_fd_pr__cap_mim_m3_1 l=2 w=2
X79 V_CMFB_S1 X GNDA VDDA sky130_fd_pr__pfet_01v8 ad=0.4 pd=2.4 as=0.4 ps=2.4 w=2 l=0.15
X80 VOUT+ cap_res_Y sky130_fd_pr__cap_mim_m3_1 l=2 w=2
X81 VOUT- X VDDA VDDA sky130_fd_pr__pfet_01v8 ad=1.2 pd=6.4 as=1.2 ps=6.4 w=6 l=0.15
X82 VOUT- cap_res_X sky130_fd_pr__cap_mim_m3_1 l=2 w=2
X83 VDDA Vb3 VD4 VDDA sky130_fd_pr__pfet_01v8 ad=0.7 pd=3.9 as=0.7 ps=3.9 w=3.5 l=0.2
X84 VOUT- cap_res_X sky130_fd_pr__cap_mim_m3_1 l=2 w=2
X85 VOUT+ cap_res_Y sky130_fd_pr__cap_mim_m3_1 l=2 w=2
X86 VOUT- cap_res_X sky130_fd_pr__cap_mim_m3_1 l=2 w=2
X87 VOUT+ cap_res_Y sky130_fd_pr__cap_mim_m3_1 l=2 w=2
X88 V_CMFB_S3 Y GNDA VDDA sky130_fd_pr__pfet_01v8 ad=0.4 pd=2.4 as=0.4 ps=2.4 w=2 l=0.15
X89 VOUT+ cap_res_Y sky130_fd_pr__cap_mim_m3_1 l=2 w=2
X90 GNDA GNDA VOUT+ GNDA sky130_fd_pr__nfet_01v8 ad=2.8 pd=14.8 as=1.4 ps=7.4 w=7 l=0.6
X91 VOUT- cap_res_X sky130_fd_pr__cap_mim_m3_1 l=2 w=2
X92 V_source V_tail_gate GNDA GNDA sky130_fd_pr__nfet_01v8 ad=0.5 pd=2.9 as=0.5 ps=2.9 w=2.5 l=0.15
X93 GNDA GNDA V_tail_gate GNDA sky130_fd_pr__nfet_01v8 ad=0.6 pd=3.8 as=0.3 ps=1.9 w=1.5 l=0.15
X94 VD2 VIN+ V_source GNDA sky130_fd_pr__nfet_01v8 ad=0.3 pd=1.9 as=0.3 ps=1.9 w=1.5 l=0.15
X95 VOUT+ cap_res_Y sky130_fd_pr__cap_mim_m3_1 l=2 w=2
X96 VOUT+ cap_res_Y sky130_fd_pr__cap_mim_m3_1 l=2 w=2
X97 VOUT- cap_res_X sky130_fd_pr__cap_mim_m3_1 l=2 w=2
X98 VD1 Vb1 X GNDA sky130_fd_pr__nfet_01v8 ad=0.3 pd=1.9 as=0.3 ps=1.9 w=1.5 l=0.15
X99 VOUT+ cap_res_Y sky130_fd_pr__cap_mim_m3_1 l=2 w=2
X100 VOUT- cap_res_X sky130_fd_pr__cap_mim_m3_1 l=2 w=2
X101 VOUT+ cap_res_Y sky130_fd_pr__cap_mim_m3_1 l=2 w=2
X102 VOUT+ cap_res_Y sky130_fd_pr__cap_mim_m3_1 l=2 w=2
X103 VOUT- cap_res_X sky130_fd_pr__cap_mim_m3_1 l=2 w=2
X104 VOUT- cap_res_X sky130_fd_pr__cap_mim_m3_1 l=2 w=2
X105 VOUT+ V_b_2nd_stage GNDA GNDA sky130_fd_pr__nfet_01v8 ad=1.4 pd=7.4 as=1.4 ps=7.4 w=7 l=0.6
X106 VDDA X V_CMFB_S2 GNDA sky130_fd_pr__nfet_01v8 ad=0.6 pd=3.4 as=0.6 ps=3.4 w=3 l=0.15
X107 VOUT- cap_res_X sky130_fd_pr__cap_mim_m3_1 l=2 w=2
X108 VOUT+ cap_res_Y sky130_fd_pr__cap_mim_m3_1 l=2 w=2
X109 VDDA Y VOUT+ VDDA sky130_fd_pr__pfet_01v8 ad=1.2 pd=6.4 as=1.2 ps=6.4 w=6 l=0.15
X110 VOUT+ cap_res_Y sky130_fd_pr__cap_mim_m3_1 l=2 w=2
X111 VOUT- cap_res_X sky130_fd_pr__cap_mim_m3_1 l=2 w=2
X112 VDDA VDDA VOUT+ VDDA sky130_fd_pr__pfet_01v8 ad=2.4 pd=12.8 as=1.2 ps=6.4 w=6 l=0.15
X113 Y Vb1 VD2 GNDA sky130_fd_pr__nfet_01v8 ad=0.3 pd=1.9 as=0.3 ps=1.9 w=1.5 l=0.15
X114 VDDA Vb3 VD4 VDDA sky130_fd_pr__pfet_01v8 ad=0.7 pd=3.9 as=0.7 ps=3.9 w=3.5 l=0.2
X115 V_er_mir_p V_err_gate VDDA VDDA sky130_fd_pr__pfet_01v8 ad=0.1 pd=0.9 as=0.1 ps=0.9 w=0.5 l=0.15
X116 VOUT- cap_res_X sky130_fd_pr__cap_mim_m3_1 l=2 w=2
X117 VOUT+ cap_res_Y sky130_fd_pr__cap_mim_m3_1 l=2 w=2
X118 V_er_mir_p V_err_amp_ref V_err_gate VDDA sky130_fd_pr__pfet_01v8 ad=0.1 pd=0.9 as=0.1 ps=0.9 w=0.5 l=0.15
X119 VOUT+ cap_res_Y sky130_fd_pr__cap_mim_m3_1 l=2 w=2
X120 VOUT- cap_res_X sky130_fd_pr__cap_mim_m3_1 l=2 w=2
X121 VOUT- cap_res_X sky130_fd_pr__cap_mim_m3_1 l=2 w=2
X122 VOUT+ cap_res_Y sky130_fd_pr__cap_mim_m3_1 l=2 w=2
X123 X VD3 VD3 VD3 sky130_fd_pr__pfet_01v8 ad=0.7 pd=3.9 as=1.4 ps=7.8 w=3.5 l=0.2
X124 VDDA VDDA err_amp_out VDDA sky130_fd_pr__pfet_01v8 ad=0.2 pd=1.8 as=0.1 ps=0.9 w=0.5 l=0.15
X125 VOUT- cap_res_X sky130_fd_pr__cap_mim_m3_1 l=2 w=2
X126 VOUT+ cap_res_Y sky130_fd_pr__cap_mim_m3_1 l=2 w=2
X127 VOUT+ cap_res_Y sky130_fd_pr__cap_mim_m3_1 l=2 w=2
X128 VOUT- X VDDA VDDA sky130_fd_pr__pfet_01v8 ad=1.2 pd=6.4 as=1.2 ps=6.4 w=6 l=0.15
X129 VOUT- X VDDA VDDA sky130_fd_pr__pfet_01v8 ad=1.2 pd=6.4 as=1.2 ps=6.4 w=6 l=0.15
X130 VOUT+ cap_res_Y sky130_fd_pr__cap_mim_m3_1 l=2 w=2
X131 VOUT+ a_109470_846# GNDA sky130_fd_pr__res_xhigh_po_0p35 l=2.63
X132 V_CMFB_S3 Y GNDA VDDA sky130_fd_pr__pfet_01v8 ad=0.4 pd=2.4 as=0.4 ps=2.4 w=2 l=0.15
X133 a_108900_3858# V_tot GNDA sky130_fd_pr__res_xhigh_po_0p35 l=1.75
X134 VOUT+ cap_res_Y sky130_fd_pr__cap_mim_m3_1 l=2 w=2
X135 VOUT- cap_res_X sky130_fd_pr__cap_mim_m3_1 l=2 w=2
X136 VOUT+ cap_res_Y sky130_fd_pr__cap_mim_m3_1 l=2 w=2
X137 VOUT+ cap_res_Y sky130_fd_pr__cap_mim_m3_1 l=2 w=2
X138 V_source V_tail_gate GNDA GNDA sky130_fd_pr__nfet_01v8 ad=0.5 pd=2.9 as=0.5 ps=2.9 w=2.5 l=0.15
X139 V_source V_tail_gate GNDA GNDA sky130_fd_pr__nfet_01v8 ad=0.5 pd=2.9 as=0.5 ps=2.9 w=2.5 l=0.15
X140 VOUT- cap_res_X sky130_fd_pr__cap_mim_m3_1 l=2 w=2
X141 VOUT- cap_res_X sky130_fd_pr__cap_mim_m3_1 l=2 w=2
X142 VOUT+ cap_res_Y sky130_fd_pr__cap_mim_m3_1 l=2 w=2
X143 V_p_mir VIN+ V_tail_gate GNDA sky130_fd_pr__nfet_01v8 ad=0.3 pd=1.9 as=0.3 ps=1.9 w=1.5 l=0.15
X144 VD2 VIN+ V_source GNDA sky130_fd_pr__nfet_01v8 ad=0.3 pd=1.9 as=0.3 ps=1.9 w=1.5 l=0.15
X145 VDDA V_err_gate V_er_mir_p VDDA sky130_fd_pr__pfet_01v8 ad=0.1 pd=0.9 as=0.1 ps=0.9 w=0.5 l=0.15
X146 VDDA VDDA VD4 VDDA sky130_fd_pr__pfet_01v8 ad=1.4 pd=7.8 as=0.7 ps=3.9 w=3.5 l=0.2
X147 VOUT- cap_res_X sky130_fd_pr__cap_mim_m3_1 l=2 w=2
X148 VOUT- cap_res_X sky130_fd_pr__cap_mim_m3_1 l=2 w=2
X149 GNDA X V_CMFB_S1 VDDA sky130_fd_pr__pfet_01v8 ad=0.4 pd=2.4 as=0.4 ps=2.4 w=2 l=0.15
X150 VOUT+ cap_res_Y sky130_fd_pr__cap_mim_m3_1 l=2 w=2
X151 VOUT- cap_res_X sky130_fd_pr__cap_mim_m3_1 l=2 w=2
X152 VOUT+ cap_res_Y sky130_fd_pr__cap_mim_m3_1 l=2 w=2
X153 VOUT- cap_res_X sky130_fd_pr__cap_mim_m3_1 l=2 w=2
X154 VOUT- cap_res_X sky130_fd_pr__cap_mim_m3_1 l=2 w=2
X155 VOUT+ cap_res_Y sky130_fd_pr__cap_mim_m3_1 l=2 w=2
X156 VOUT- cap_res_X sky130_fd_pr__cap_mim_m3_1 l=2 w=2
X157 VOUT- cap_res_X sky130_fd_pr__cap_mim_m3_1 l=2 w=2
X158 GNDA GNDA V_source GNDA sky130_fd_pr__nfet_01v8 ad=1 pd=5.8 as=0.5 ps=2.9 w=2.5 l=0.15
X159 VOUT- cap_res_X sky130_fd_pr__cap_mim_m3_1 l=2 w=2
X160 VDDA X V_CMFB_S2 GNDA sky130_fd_pr__nfet_01v8 ad=0.6 pd=3.4 as=0.6 ps=3.4 w=3 l=0.15
X161 VOUT- cap_res_X sky130_fd_pr__cap_mim_m3_1 l=2 w=2
X162 Y Vb1 VD2 GNDA sky130_fd_pr__nfet_01v8 ad=0.3 pd=1.9 as=0.3 ps=1.9 w=1.5 l=0.15
X163 V_err_p V_err_gate VDDA VDDA sky130_fd_pr__pfet_01v8 ad=0.1 pd=0.9 as=0.1 ps=0.9 w=0.5 l=0.15
X164 V_er_mir_p V_tot V_err_gate VDDA sky130_fd_pr__pfet_01v8 ad=0.1 pd=0.9 as=0.1 ps=0.9 w=0.5 l=0.15
X165 VOUT- cap_res_X sky130_fd_pr__cap_mim_m3_1 l=2 w=2
X166 V_err_p V_err_amp_ref err_amp_out VDDA sky130_fd_pr__pfet_01v8 ad=0.1 pd=0.9 as=0.1 ps=0.9 w=0.5 l=0.15
X167 V_err_p V_tot err_amp_mir VDDA sky130_fd_pr__pfet_01v8 ad=0.1 pd=0.9 as=0.1 ps=0.9 w=0.5 l=0.15
X168 VOUT+ cap_res_Y sky130_fd_pr__cap_mim_m3_1 l=2 w=2
X169 VOUT- X VDDA VDDA sky130_fd_pr__pfet_01v8 ad=1.2 pd=6.4 as=1.2 ps=6.4 w=6 l=0.15
X170 VOUT- cap_res_X sky130_fd_pr__cap_mim_m3_1 l=2 w=2
X171 VOUT- cap_res_X sky130_fd_pr__cap_mim_m3_1 l=2 w=2
X172 VOUT- cap_res_X sky130_fd_pr__cap_mim_m3_1 l=2 w=2
X173 VOUT- cap_res_X sky130_fd_pr__cap_mim_m3_1 l=2 w=2
X174 VOUT+ cap_res_Y sky130_fd_pr__cap_mim_m3_1 l=2 w=2
X175 V_CMFB_S3 Y GNDA VDDA sky130_fd_pr__pfet_01v8 ad=0.4 pd=2.4 as=0.4 ps=2.4 w=2 l=0.15
X176 VDDA VDDA GNDA VDDA sky130_fd_pr__pfet_01v8 ad=0.8 pd=4.8 as=0.4 ps=2.4 w=2 l=0.15
X177 VOUT- cap_res_X sky130_fd_pr__cap_mim_m3_1 l=2 w=2
X178 VOUT+ cap_res_Y sky130_fd_pr__cap_mim_m3_1 l=2 w=2
X179 X Vb2 VD3 VD3 sky130_fd_pr__pfet_01v8 ad=0.7 pd=3.9 as=0.7 ps=3.9 w=3.5 l=0.2
X180 V_source V_tail_gate GNDA GNDA sky130_fd_pr__nfet_01v8 ad=0.5 pd=2.9 as=0.5 ps=2.9 w=2.5 l=0.15
X181 VD2 VIN+ V_source GNDA sky130_fd_pr__nfet_01v8 ad=0.3 pd=1.9 as=0.3 ps=1.9 w=1.5 l=0.15
X182 VDDA V_err_gate V_err_p VDDA sky130_fd_pr__pfet_01v8 ad=0.1 pd=0.9 as=0.1 ps=0.9 w=0.5 l=0.15
X183 VOUT- cap_res_X sky130_fd_pr__cap_mim_m3_1 l=2 w=2
X184 VD1 VIN- V_source GNDA sky130_fd_pr__nfet_01v8 ad=0.3 pd=1.9 as=0.3 ps=1.9 w=1.5 l=0.15
X185 VOUT+ cap_res_Y sky130_fd_pr__cap_mim_m3_1 l=2 w=2
X186 Vb2_Vb3 Vb2_Vb3 Vb2_Vb3 Vb2_Vb3 sky130_fd_pr__pfet_01v8 ad=1.4 pd=7.8 as=5.6 ps=31.2 w=3.5 l=0.2
X187 GNDA X V_CMFB_S1 VDDA sky130_fd_pr__pfet_01v8 ad=0.4 pd=2.4 as=0.4 ps=2.4 w=2 l=0.15
X188 VOUT- cap_res_X sky130_fd_pr__cap_mim_m3_1 l=2 w=2
X189 GNDA X V_CMFB_S1 VDDA sky130_fd_pr__pfet_01v8 ad=0.4 pd=2.4 as=0.4 ps=2.4 w=2 l=0.15
X190 VOUT+ cap_res_Y sky130_fd_pr__cap_mim_m3_1 l=2 w=2
X191 VOUT- V_b_2nd_stage GNDA GNDA sky130_fd_pr__nfet_01v8 ad=1.4 pd=7.4 as=1.4 ps=7.4 w=7 l=0.6
X192 VOUT+ cap_res_Y sky130_fd_pr__cap_mim_m3_1 l=2 w=2
X193 VOUT- cap_res_X sky130_fd_pr__cap_mim_m3_1 l=2 w=2
X194 VOUT- cap_res_X sky130_fd_pr__cap_mim_m3_1 l=2 w=2
X195 VOUT+ cap_res_Y sky130_fd_pr__cap_mim_m3_1 l=2 w=2
X196 VOUT- cap_res_X sky130_fd_pr__cap_mim_m3_1 l=2 w=2
X197 VOUT+ cap_res_Y sky130_fd_pr__cap_mim_m3_1 l=2 w=2
X198 VD4 Vb2 Y VD4 sky130_fd_pr__pfet_01v8 ad=0.7 pd=3.9 as=0.7 ps=3.9 w=3.5 l=0.2
X199 VOUT- cap_res_X sky130_fd_pr__cap_mim_m3_1 l=2 w=2
X200 VOUT- cap_res_X sky130_fd_pr__cap_mim_m3_1 l=2 w=2
X201 cap_res_X X GNDA sky130_fd_pr__res_high_po_1p41 l=1.41
X202 GNDA V_tail_gate V_source GNDA sky130_fd_pr__nfet_01v8 ad=0.5 pd=2.9 as=0.5 ps=2.9 w=2.5 l=0.15
X203 VD4 Vb3 VDDA VDDA sky130_fd_pr__pfet_01v8 ad=0.7 pd=3.9 as=0.7 ps=3.9 w=3.5 l=0.2
X204 GNDA err_amp_mir err_amp_out GNDA sky130_fd_pr__nfet_01v8 ad=0.1 pd=0.9 as=0.1 ps=0.9 w=0.5 l=0.15
X205 Y Vb1 VD2 GNDA sky130_fd_pr__nfet_01v8 ad=0.3 pd=1.9 as=0.3 ps=1.9 w=1.5 l=0.15
X206 VOUT- cap_res_X sky130_fd_pr__cap_mim_m3_1 l=2 w=2
X207 VDDA Y V_CMFB_S4 GNDA sky130_fd_pr__nfet_01v8 ad=0.6 pd=3.4 as=0.6 ps=3.4 w=3 l=0.15
X208 VD3 Vb2 X VD3 sky130_fd_pr__pfet_01v8 ad=0.7 pd=3.9 as=0.7 ps=3.9 w=3.5 l=0.2
X209 V_er_mir_p V_err_amp_ref V_err_gate VDDA sky130_fd_pr__pfet_01v8 ad=0.1 pd=0.9 as=0.1 ps=0.9 w=0.5 l=0.15
X210 VOUT+ cap_res_Y sky130_fd_pr__cap_mim_m3_1 l=2 w=2
X211 X Vb1 VD1 GNDA sky130_fd_pr__nfet_01v8 ad=0.3 pd=1.9 as=0.3 ps=1.9 w=1.5 l=0.15
X212 VOUT- cap_res_X sky130_fd_pr__cap_mim_m3_1 l=2 w=2
X213 V_err_p V_tot err_amp_mir VDDA sky130_fd_pr__pfet_01v8 ad=0.1 pd=0.9 as=0.1 ps=0.9 w=0.5 l=0.15
X214 Vb2_Vb3 VDDA VDDA VDDA sky130_fd_pr__pfet_01v8 ad=0.7 pd=3.9 as=1.4 ps=7.8 w=3.5 l=0.2
X215 VOUT+ cap_res_Y sky130_fd_pr__cap_mim_m3_1 l=2 w=2
X216 VOUT+ GNDA GNDA GNDA sky130_fd_pr__nfet_01v8 ad=1.4 pd=7.4 as=2.8 ps=14.8 w=7 l=0.6
X217 VOUT- cap_res_X sky130_fd_pr__cap_mim_m3_1 l=2 w=2
X218 VOUT- cap_res_X sky130_fd_pr__cap_mim_m3_1 l=2 w=2
X219 GNDA V_b_2nd_stage VOUT- GNDA sky130_fd_pr__nfet_01v8 ad=1.4 pd=7.4 as=1.4 ps=7.4 w=7 l=0.6
X220 VOUT- X VDDA VDDA sky130_fd_pr__pfet_01v8 ad=1.2 pd=6.4 as=1.2 ps=6.4 w=6 l=0.15
X221 VOUT+ cap_res_Y sky130_fd_pr__cap_mim_m3_1 l=2 w=2
X222 err_amp_mir err_amp_mir GNDA GNDA sky130_fd_pr__nfet_01v8 ad=0.1 pd=0.9 as=0.1 ps=0.9 w=0.5 l=0.15
X223 V_source V_tail_gate GNDA GNDA sky130_fd_pr__nfet_01v8 ad=0.5 pd=2.9 as=0.5 ps=2.9 w=2.5 l=0.15
X224 Vb2_Vb3 Vb2_Vb3 Vb3 Vb2_Vb3 sky130_fd_pr__pfet_01v8 ad=1.4 pd=7.8 as=0.7 ps=3.9 w=3.5 l=0.2
X225 VD2 VIN+ V_source GNDA sky130_fd_pr__nfet_01v8 ad=0.3 pd=1.9 as=0.3 ps=1.9 w=1.5 l=0.15
X226 GNDA GNDA Vb1 GNDA sky130_fd_pr__nfet_01v8 ad=0.6 pd=3.8 as=0.3 ps=1.9 w=1.5 l=0.15
X227 VDDA V_err_gate V_er_mir_p VDDA sky130_fd_pr__pfet_01v8 ad=0.1 pd=0.9 as=0.1 ps=0.9 w=0.5 l=0.15
X228 VOUT- cap_res_X sky130_fd_pr__cap_mim_m3_1 l=2 w=2
X229 VOUT+ cap_res_Y sky130_fd_pr__cap_mim_m3_1 l=2 w=2
X230 VD1 VIN- V_source GNDA sky130_fd_pr__nfet_01v8 ad=0.3 pd=1.9 as=0.3 ps=1.9 w=1.5 l=0.15
X231 VDDA V_err_gate V_er_mir_p VDDA sky130_fd_pr__pfet_01v8 ad=0.1 pd=0.9 as=0.1 ps=0.9 w=0.5 l=0.15
X232 V_err_gate V_tot V_er_mir_p VDDA sky130_fd_pr__pfet_01v8 ad=0.1 pd=0.9 as=0.1 ps=0.9 w=0.5 l=0.15
X233 VOUT+ cap_res_Y sky130_fd_pr__cap_mim_m3_1 l=2 w=2
X234 VOUT+ cap_res_Y sky130_fd_pr__cap_mim_m3_1 l=2 w=2
X235 VD1 VIN- V_source GNDA sky130_fd_pr__nfet_01v8 ad=0.3 pd=1.9 as=0.3 ps=1.9 w=1.5 l=0.15
X236 VOUT+ cap_res_Y sky130_fd_pr__cap_mim_m3_1 l=2 w=2
X237 V_CMFB_S4 Y VDDA GNDA sky130_fd_pr__nfet_01v8 ad=0.6 pd=3.4 as=0.6 ps=3.4 w=3 l=0.15
X238 VOUT+ cap_res_Y sky130_fd_pr__cap_mim_m3_1 l=2 w=2
X239 VOUT+ cap_res_Y sky130_fd_pr__cap_mim_m3_1 l=2 w=2
X240 GNDA X V_CMFB_S1 VDDA sky130_fd_pr__pfet_01v8 ad=0.4 pd=2.4 as=0.4 ps=2.4 w=2 l=0.15
X241 VOUT+ cap_res_Y sky130_fd_pr__cap_mim_m3_1 l=2 w=2
X242 VOUT- cap_res_X sky130_fd_pr__cap_mim_m3_1 l=2 w=2
X243 VD4 VDDA VDDA VDDA sky130_fd_pr__pfet_01v8 ad=0.7 pd=3.9 as=1.4 ps=7.8 w=3.5 l=0.2
X244 VD3 Vb2 X VD3 sky130_fd_pr__pfet_01v8 ad=0.7 pd=3.9 as=0.7 ps=3.9 w=3.5 l=0.2
X245 Y VD4 VD4 VD4 sky130_fd_pr__pfet_01v8 ad=0.7 pd=3.9 as=1.4 ps=7.8 w=3.5 l=0.2
X246 VD3 VDDA VDDA VDDA sky130_fd_pr__pfet_01v8 ad=0.7 pd=3.9 as=1.4 ps=7.8 w=3.5 l=0.2
X247 GNDA V_tail_gate V_source GNDA sky130_fd_pr__nfet_01v8 ad=0.5 pd=2.9 as=0.5 ps=2.9 w=2.5 l=0.15
X248 VDDA GNDA GNDA GNDA sky130_fd_pr__nfet_01v8 ad=0.6 pd=3.4 as=1.2 ps=6.8 w=3 l=0.15
X249 V_source VIN+ VD2 GNDA sky130_fd_pr__nfet_01v8 ad=0.3 pd=1.9 as=0.3 ps=1.9 w=1.5 l=0.15
X250 VOUT- cap_res_X sky130_fd_pr__cap_mim_m3_1 l=2 w=2
X251 VOUT+ cap_res_Y sky130_fd_pr__cap_mim_m3_1 l=2 w=2
X252 VOUT- cap_res_X sky130_fd_pr__cap_mim_m3_1 l=2 w=2
X253 VOUT+ cap_res_Y sky130_fd_pr__cap_mim_m3_1 l=2 w=2
X254 V_err_p V_err_gate VDDA VDDA sky130_fd_pr__pfet_01v8 ad=0.1 pd=0.9 as=0.1 ps=0.9 w=0.5 l=0.15
X255 Y Vb1 VD2 GNDA sky130_fd_pr__nfet_01v8 ad=0.3 pd=1.9 as=0.3 ps=1.9 w=1.5 l=0.15
X256 VOUT+ cap_res_Y sky130_fd_pr__cap_mim_m3_1 l=2 w=2
X257 X Vb1 VD1 GNDA sky130_fd_pr__nfet_01v8 ad=0.3 pd=1.9 as=0.3 ps=1.9 w=1.5 l=0.15
X258 VDDA Y V_CMFB_S4 GNDA sky130_fd_pr__nfet_01v8 ad=0.6 pd=3.4 as=0.6 ps=3.4 w=3 l=0.15
X259 X Vb1 VD1 GNDA sky130_fd_pr__nfet_01v8 ad=0.3 pd=1.9 as=0.3 ps=1.9 w=1.5 l=0.15
X260 VOUT- cap_res_X sky130_fd_pr__cap_mim_m3_1 l=2 w=2
X261 VOUT+ cap_res_Y sky130_fd_pr__cap_mim_m3_1 l=2 w=2
X262 V_err_p V_err_amp_ref err_amp_out VDDA sky130_fd_pr__pfet_01v8 ad=0.1 pd=0.9 as=0.1 ps=0.9 w=0.5 l=0.15
X263 VOUT+ cap_res_Y sky130_fd_pr__cap_mim_m3_1 l=2 w=2
X264 VOUT- cap_res_X sky130_fd_pr__cap_mim_m3_1 l=2 w=2
X265 VOUT+ cap_res_Y sky130_fd_pr__cap_mim_m3_1 l=2 w=2
X266 VOUT+ cap_res_Y sky130_fd_pr__cap_mim_m3_1 l=2 w=2
X267 VOUT+ cap_res_Y sky130_fd_pr__cap_mim_m3_1 l=2 w=2
X268 VD3 Vb2 X VD3 sky130_fd_pr__pfet_01v8 ad=0.7 pd=3.9 as=0.7 ps=3.9 w=3.5 l=0.2
X269 VOUT+ cap_res_Y sky130_fd_pr__cap_mim_m3_1 l=2 w=2
X270 V_CMFB_S2 X VDDA GNDA sky130_fd_pr__nfet_01v8 ad=0.6 pd=3.4 as=0.6 ps=3.4 w=3 l=0.15
X271 VD3 Vb3 VDDA VDDA sky130_fd_pr__pfet_01v8 ad=0.7 pd=3.9 as=0.7 ps=3.9 w=3.5 l=0.2
X272 VOUT+ cap_res_Y sky130_fd_pr__cap_mim_m3_1 l=2 w=2
X273 VOUT- cap_res_X sky130_fd_pr__cap_mim_m3_1 l=2 w=2
X274 VOUT+ cap_res_Y sky130_fd_pr__cap_mim_m3_1 l=2 w=2
X275 err_amp_out err_amp_mir GNDA GNDA sky130_fd_pr__nfet_01v8 ad=0.1 pd=0.9 as=0.1 ps=0.9 w=0.5 l=0.15
X276 VOUT+ cap_res_Y sky130_fd_pr__cap_mim_m3_1 l=2 w=2
X277 V_p_mir V_tail_gate GNDA GNDA sky130_fd_pr__nfet_01v8 ad=0.5 pd=2.9 as=0.5 ps=2.9 w=2.5 l=0.15
X278 VOUT+ Y VDDA VDDA sky130_fd_pr__pfet_01v8 ad=1.2 pd=6.4 as=1.2 ps=6.4 w=6 l=0.15
X279 VD2 Vb1 Y GNDA sky130_fd_pr__nfet_01v8 ad=0.3 pd=1.9 as=0.3 ps=1.9 w=1.5 l=0.15
X280 VOUT+ cap_res_Y sky130_fd_pr__cap_mim_m3_1 l=2 w=2
X281 a_113080_1090# Vb1 Vb1 GNDA sky130_fd_pr__nfet_01v8 ad=0.3 pd=1.9 as=0.3 ps=1.9 w=1.5 l=0.15
X282 VD2 GNDA GNDA GNDA sky130_fd_pr__nfet_01v8 ad=0.3 pd=1.9 as=0.6 ps=3.8 w=1.5 l=0.15
X283 VDDA V_err_gate V_er_mir_p VDDA sky130_fd_pr__pfet_01v8 ad=0.1 pd=0.9 as=0.1 ps=0.9 w=0.5 l=0.15
X284 VOUT+ cap_res_Y sky130_fd_pr__cap_mim_m3_1 l=2 w=2
X285 VD1 VIN- V_source GNDA sky130_fd_pr__nfet_01v8 ad=0.3 pd=1.9 as=0.3 ps=1.9 w=1.5 l=0.15
X286 VDDA V_err_gate V_err_p VDDA sky130_fd_pr__pfet_01v8 ad=0.1 pd=0.9 as=0.1 ps=0.9 w=0.5 l=0.15
X287 VOUT- cap_res_X sky130_fd_pr__cap_mim_m3_1 l=2 w=2
X288 Vb3 Vb2 Vb2_Vb3 Vb2_Vb3 sky130_fd_pr__pfet_01v8 ad=0.7 pd=3.9 as=0.7 ps=3.9 w=3.5 l=0.2
X289 VOUT+ cap_res_Y sky130_fd_pr__cap_mim_m3_1 l=2 w=2
X290 VOUT- cap_res_X sky130_fd_pr__cap_mim_m3_1 l=2 w=2
X291 Y Vb2 VD4 VD4 sky130_fd_pr__pfet_01v8 ad=0.7 pd=3.9 as=0.7 ps=3.9 w=3.5 l=0.2
X292 GNDA X V_CMFB_S1 VDDA sky130_fd_pr__pfet_01v8 ad=0.4 pd=2.4 as=0.4 ps=2.4 w=2 l=0.15
X293 VOUT+ cap_res_Y sky130_fd_pr__cap_mim_m3_1 l=2 w=2
X294 VOUT- cap_res_X sky130_fd_pr__cap_mim_m3_1 l=2 w=2
X295 VOUT+ cap_res_Y sky130_fd_pr__cap_mim_m3_1 l=2 w=2
X296 VDDA Vb3 VD4 VDDA sky130_fd_pr__pfet_01v8 ad=0.7 pd=3.9 as=0.7 ps=3.9 w=3.5 l=0.2
X297 VOUT- cap_res_X sky130_fd_pr__cap_mim_m3_1 l=2 w=2
X298 VOUT- cap_res_X sky130_fd_pr__cap_mim_m3_1 l=2 w=2
X299 V_source Vb1 a_113080_1090# GNDA sky130_fd_pr__nfet_01v8 ad=0.6 pd=3.8 as=0.6 ps=3.8 w=1.5 l=3
X300 X Vb2 VD3 VD3 sky130_fd_pr__pfet_01v8 ad=0.7 pd=3.9 as=0.7 ps=3.9 w=3.5 l=0.2
X301 VOUT- cap_res_X sky130_fd_pr__cap_mim_m3_1 l=2 w=2
X302 VDDA Y VOUT+ VDDA sky130_fd_pr__pfet_01v8 ad=1.2 pd=6.4 as=1.2 ps=6.4 w=6 l=0.15
X303 VOUT- cap_res_X sky130_fd_pr__cap_mim_m3_1 l=2 w=2
X304 V_er_mir_p V_err_gate VDDA VDDA sky130_fd_pr__pfet_01v8 ad=0.1 pd=0.9 as=0.1 ps=0.9 w=0.5 l=0.15
X305 Y GNDA GNDA GNDA sky130_fd_pr__nfet_01v8 ad=0.3 pd=1.9 as=0.6 ps=3.8 w=1.5 l=0.15
X306 X Vb1 VD1 GNDA sky130_fd_pr__nfet_01v8 ad=0.3 pd=1.9 as=0.3 ps=1.9 w=1.5 l=0.15
X307 VOUT+ cap_res_Y sky130_fd_pr__cap_mim_m3_1 l=2 w=2
X308 VDDA Vb3 Vb2_Vb3 VDDA sky130_fd_pr__pfet_01v8 ad=0.7 pd=3.9 as=0.7 ps=3.9 w=3.5 l=0.2
X309 VDDA Y V_CMFB_S4 GNDA sky130_fd_pr__nfet_01v8 ad=0.6 pd=3.4 as=0.6 ps=3.4 w=3 l=0.15
X310 VOUT- cap_res_X sky130_fd_pr__cap_mim_m3_1 l=2 w=2
X311 Y Vb2 VD4 VD4 sky130_fd_pr__pfet_01v8 ad=0.7 pd=3.9 as=0.7 ps=3.9 w=3.5 l=0.2
X312 V_err_p V_tot err_amp_mir VDDA sky130_fd_pr__pfet_01v8 ad=0.1 pd=0.9 as=0.1 ps=0.9 w=0.5 l=0.15
X313 VOUT- cap_res_X sky130_fd_pr__cap_mim_m3_1 l=2 w=2
X314 VOUT+ cap_res_Y sky130_fd_pr__cap_mim_m3_1 l=2 w=2
X315 VOUT+ cap_res_Y sky130_fd_pr__cap_mim_m3_1 l=2 w=2
X316 VOUT+ cap_res_Y sky130_fd_pr__cap_mim_m3_1 l=2 w=2
X317 VOUT- VDDA VDDA VDDA sky130_fd_pr__pfet_01v8 ad=1.2 pd=6.4 as=2.4 ps=12.8 w=6 l=0.15
X318 VOUT+ cap_res_Y sky130_fd_pr__cap_mim_m3_1 l=2 w=2
X319 VOUT+ cap_res_Y sky130_fd_pr__cap_mim_m3_1 l=2 w=2
X320 VOUT- cap_res_X sky130_fd_pr__cap_mim_m3_1 l=2 w=2
X321 VOUT+ cap_res_Y sky130_fd_pr__cap_mim_m3_1 l=2 w=2
X322 V_CMFB_S2 X VDDA GNDA sky130_fd_pr__nfet_01v8 ad=0.6 pd=3.4 as=0.6 ps=3.4 w=3 l=0.15
X323 VOUT- cap_res_X sky130_fd_pr__cap_mim_m3_1 l=2 w=2
X324 VOUT- cap_res_X sky130_fd_pr__cap_mim_m3_1 l=2 w=2
X325 GNDA GNDA VDDA GNDA sky130_fd_pr__nfet_01v8 ad=1.2 pd=6.8 as=0.6 ps=3.4 w=3 l=0.15
X326 VOUT+ Y VDDA VDDA sky130_fd_pr__pfet_01v8 ad=1.2 pd=6.4 as=1.2 ps=6.4 w=6 l=0.15
X327 err_amp_mir err_amp_mir GNDA GNDA sky130_fd_pr__nfet_01v8 ad=0.1 pd=0.9 as=0.1 ps=0.9 w=0.5 l=0.15
X328 err_amp_mir err_amp_mir GNDA GNDA sky130_fd_pr__nfet_01v8 ad=0.1 pd=0.9 as=0.1 ps=0.9 w=0.5 l=0.15
X329 V_source V_tail_gate GNDA GNDA sky130_fd_pr__nfet_01v8 ad=0.5 pd=2.9 as=0.5 ps=2.9 w=2.5 l=0.15
X330 a_113080_1090# Vb1 Vb1 GNDA sky130_fd_pr__nfet_01v8 ad=0.3 pd=1.9 as=0.3 ps=1.9 w=1.5 l=0.15
X331 VDDA V_err_gate V_err_p VDDA sky130_fd_pr__pfet_01v8 ad=0.1 pd=0.9 as=0.1 ps=0.9 w=0.5 l=0.15
X332 VD1 VIN- V_source GNDA sky130_fd_pr__nfet_01v8 ad=0.3 pd=1.9 as=0.3 ps=1.9 w=1.5 l=0.15
X333 V_err_gate V_tot V_er_mir_p VDDA sky130_fd_pr__pfet_01v8 ad=0.1 pd=0.9 as=0.1 ps=0.9 w=0.5 l=0.15
X334 Vb2_2 Vb2 VDDA VDDA sky130_fd_pr__pfet_01v8 ad=0.36 pd=2.2 as=0.36 ps=2.2 w=1.8 l=0.2
X335 VOUT+ cap_res_Y sky130_fd_pr__cap_mim_m3_1 l=2 w=2
X336 VOUT+ cap_res_Y sky130_fd_pr__cap_mim_m3_1 l=2 w=2
X337 GNDA V_b_2nd_stage VOUT+ GNDA sky130_fd_pr__nfet_01v8 ad=1.4 pd=7.4 as=1.4 ps=7.4 w=7 l=0.6
X338 VDDA X VOUT- VDDA sky130_fd_pr__pfet_01v8 ad=1.2 pd=6.4 as=1.2 ps=6.4 w=6 l=0.15
X339 VOUT- cap_res_X sky130_fd_pr__cap_mim_m3_1 l=2 w=2
X340 VOUT- cap_res_X sky130_fd_pr__cap_mim_m3_1 l=2 w=2
X341 VOUT- cap_res_X sky130_fd_pr__cap_mim_m3_1 l=2 w=2
X342 VOUT+ cap_res_Y sky130_fd_pr__cap_mim_m3_1 l=2 w=2
X343 VOUT- cap_res_X sky130_fd_pr__cap_mim_m3_1 l=2 w=2
X344 X Vb2 VD3 VD3 sky130_fd_pr__pfet_01v8 ad=0.7 pd=3.9 as=0.7 ps=3.9 w=3.5 l=0.2
X345 VOUT+ cap_res_Y sky130_fd_pr__cap_mim_m3_1 l=2 w=2
X346 VDDA Vb3 VD3 VDDA sky130_fd_pr__pfet_01v8 ad=0.7 pd=3.9 as=0.7 ps=3.9 w=3.5 l=0.2
X347 VOUT- cap_res_X sky130_fd_pr__cap_mim_m3_1 l=2 w=2
X348 VOUT+ cap_res_Y sky130_fd_pr__cap_mim_m3_1 l=2 w=2
X349 GNDA Y V_CMFB_S3 VDDA sky130_fd_pr__pfet_01v8 ad=0.4 pd=2.4 as=0.4 ps=2.4 w=2 l=0.15
X350 VOUT- cap_res_X sky130_fd_pr__cap_mim_m3_1 l=2 w=2
X351 VOUT- cap_res_X sky130_fd_pr__cap_mim_m3_1 l=2 w=2
X352 VOUT- cap_res_X sky130_fd_pr__cap_mim_m3_1 l=2 w=2
X353 GNDA V_tail_gate V_source GNDA sky130_fd_pr__nfet_01v8 ad=0.5 pd=2.9 as=0.5 ps=2.9 w=2.5 l=0.15
X354 VOUT- a_117950_846# GNDA sky130_fd_pr__res_xhigh_po_0p35 l=2.63
X355 GNDA GNDA VD2 GNDA sky130_fd_pr__nfet_01v8 ad=0.6 pd=3.8 as=0.3 ps=1.9 w=1.5 l=0.15
X356 VOUT- cap_res_X sky130_fd_pr__cap_mim_m3_1 l=2 w=2
X357 VOUT- cap_res_X sky130_fd_pr__cap_mim_m3_1 l=2 w=2
X358 VOUT- cap_res_X sky130_fd_pr__cap_mim_m3_1 l=2 w=2
X359 X Vb1 VD1 GNDA sky130_fd_pr__nfet_01v8 ad=0.3 pd=1.9 as=0.3 ps=1.9 w=1.5 l=0.15
X360 VDDA Y V_CMFB_S4 GNDA sky130_fd_pr__nfet_01v8 ad=0.6 pd=3.4 as=0.6 ps=3.4 w=3 l=0.15
X361 VOUT- cap_res_X sky130_fd_pr__cap_mim_m3_1 l=2 w=2
X362 VDDA Y V_CMFB_S4 GNDA sky130_fd_pr__nfet_01v8 ad=0.6 pd=3.4 as=0.6 ps=3.4 w=3 l=0.15
X363 VOUT- cap_res_X sky130_fd_pr__cap_mim_m3_1 l=2 w=2
X364 VOUT- cap_res_X sky130_fd_pr__cap_mim_m3_1 l=2 w=2
X365 VOUT- cap_res_X sky130_fd_pr__cap_mim_m3_1 l=2 w=2
X366 X Vb2 VD3 VD3 sky130_fd_pr__pfet_01v8 ad=0.7 pd=3.9 as=0.7 ps=3.9 w=3.5 l=0.2
X367 VOUT- cap_res_X sky130_fd_pr__cap_mim_m3_1 l=2 w=2
X368 VOUT- cap_res_X sky130_fd_pr__cap_mim_m3_1 l=2 w=2
X369 VOUT- cap_res_X sky130_fd_pr__cap_mim_m3_1 l=2 w=2
X370 VDDA Vb3 VD3 VDDA sky130_fd_pr__pfet_01v8 ad=0.7 pd=3.9 as=0.7 ps=3.9 w=3.5 l=0.2
X371 VOUT- cap_res_X sky130_fd_pr__cap_mim_m3_1 l=2 w=2
X372 V_CMFB_S3 Y GNDA VDDA sky130_fd_pr__pfet_01v8 ad=0.4 pd=2.4 as=0.4 ps=2.4 w=2 l=0.15
X373 VOUT- cap_res_X sky130_fd_pr__cap_mim_m3_1 l=2 w=2
X374 V_CMFB_S2 X VDDA GNDA sky130_fd_pr__nfet_01v8 ad=0.6 pd=3.4 as=0.6 ps=3.4 w=3 l=0.15
X375 VOUT+ cap_res_Y sky130_fd_pr__cap_mim_m3_1 l=2 w=2
X376 VOUT+ Y VDDA VDDA sky130_fd_pr__pfet_01v8 ad=1.2 pd=6.4 as=1.2 ps=6.4 w=6 l=0.15
X377 err_amp_out err_amp_mir GNDA GNDA sky130_fd_pr__nfet_01v8 ad=0.1 pd=0.9 as=0.1 ps=0.9 w=0.5 l=0.15
X378 V_source V_tail_gate GNDA GNDA sky130_fd_pr__nfet_01v8 ad=0.5 pd=2.9 as=0.5 ps=2.9 w=2.5 l=0.15
X379 GNDA GNDA Y GNDA sky130_fd_pr__nfet_01v8 ad=0.6 pd=3.8 as=0.3 ps=1.9 w=1.5 l=0.15
X380 VOUT+ cap_res_Y sky130_fd_pr__cap_mim_m3_1 l=2 w=2
X381 VOUT- cap_res_X sky130_fd_pr__cap_mim_m3_1 l=2 w=2
X382 VD1 GNDA GNDA GNDA sky130_fd_pr__nfet_01v8 ad=0.3 pd=1.9 as=0.6 ps=3.8 w=1.5 l=0.15
X383 VD4 Vb2 Y VD4 sky130_fd_pr__pfet_01v8 ad=0.7 pd=3.9 as=0.7 ps=3.9 w=3.5 l=0.2
X384 V_err_gate V_err_amp_ref V_er_mir_p VDDA sky130_fd_pr__pfet_01v8 ad=0.1 pd=0.9 as=0.1 ps=0.9 w=0.5 l=0.15
X385 VOUT+ cap_res_Y sky130_fd_pr__cap_mim_m3_1 l=2 w=2
X386 VOUT- cap_res_X sky130_fd_pr__cap_mim_m3_1 l=2 w=2
X387 GNDA VDDA VDDA VDDA sky130_fd_pr__pfet_01v8 ad=0.4 pd=2.4 as=0.8 ps=4.8 w=2 l=0.15
X388 VOUT- cap_res_X sky130_fd_pr__cap_mim_m3_1 l=2 w=2
X389 VOUT- cap_res_X sky130_fd_pr__cap_mim_m3_1 l=2 w=2
X390 VOUT+ cap_res_Y sky130_fd_pr__cap_mim_m3_1 l=2 w=2
X391 VDDA VDDA VDDA VDDA sky130_fd_pr__pfet_01v8 ad=0.72 pd=4.4 as=65.96 ps=373 w=1.8 l=0.2
X392 VD4 Vb3 VDDA VDDA sky130_fd_pr__pfet_01v8 ad=0.7 pd=3.9 as=0.7 ps=3.9 w=3.5 l=0.2
X393 VDDA X VOUT- VDDA sky130_fd_pr__pfet_01v8 ad=1.2 pd=6.4 as=1.2 ps=6.4 w=6 l=0.15
X394 VOUT+ cap_res_Y sky130_fd_pr__cap_mim_m3_1 l=2 w=2
X395 VDDA VDDA VOUT- VDDA sky130_fd_pr__pfet_01v8 ad=2.4 pd=12.8 as=1.2 ps=6.4 w=6 l=0.15
X396 GNDA Y V_CMFB_S3 VDDA sky130_fd_pr__pfet_01v8 ad=0.4 pd=2.4 as=0.4 ps=2.4 w=2 l=0.15
X397 VOUT+ cap_res_Y sky130_fd_pr__cap_mim_m3_1 l=2 w=2
X398 GNDA V_tail_gate V_source GNDA sky130_fd_pr__nfet_01v8 ad=0.5 pd=2.9 as=0.5 ps=2.9 w=2.5 l=0.15
X399 VOUT- cap_res_X sky130_fd_pr__cap_mim_m3_1 l=2 w=2
X400 VOUT- cap_res_X sky130_fd_pr__cap_mim_m3_1 l=2 w=2
X401 VOUT+ cap_res_Y sky130_fd_pr__cap_mim_m3_1 l=2 w=2