* NGSPICE file created from two_stage_opamp_dummy_magic_17.ext - technology: sky130A

.subckt two_stage_opamp_dummy_magic_17 VDDA V_CMFB_S1 V_CMFB_S3 Vb1 V_CMFB_S2 V_CMFB_S4
+ VOUT- VOUT+ V_tail_gate V_err_amp_ref V_err_gate VIN+ VIN- GNDA
X0 VOUT- cap_res_X sky130_fd_pr__cap_mim_m3_1 l=2 w=2
X1 VDDA Y V_CMFB_S4 GNDA sky130_fd_pr__nfet_01v8 ad=0.6 pd=3.4 as=0.6 ps=3.4 w=3 l=0.15
X2 X Vb1 VD1 GNDA sky130_fd_pr__nfet_01v8 ad=0.3 pd=1.9 as=0.3 ps=1.9 w=1.5 l=0.15
X3 V_err_p V_err_gate VDDA VDDA sky130_fd_pr__pfet_01v8 ad=0.5 pd=2.9 as=0.5 ps=2.9 w=2.5 l=0.15
X4 VOUT- cap_res_X sky130_fd_pr__cap_mim_m3_1 l=2 w=2
X5 a_5930_594# V_tot GNDA sky130_fd_pr__res_xhigh_po_0p35 l=1.75
X6 VOUT+ cap_res_Y sky130_fd_pr__cap_mim_m3_1 l=2 w=2
X7 V_CMFB_S3 Y GNDA VDDA sky130_fd_pr__pfet_01v8 ad=0.4 pd=2.4 as=0.4 ps=2.4 w=2 l=0.15
X8 VOUT+ cap_res_Y sky130_fd_pr__cap_mim_m3_1 l=2 w=2
X9 VD4 VD4 Y VD4 sky130_fd_pr__pfet_01v8 ad=1.4 pd=7.8 as=0.7 ps=3.9 w=3.5 l=0.2
X10 VOUT- cap_res_X sky130_fd_pr__cap_mim_m3_1 l=2 w=2
X11 VOUT+ cap_res_Y sky130_fd_pr__cap_mim_m3_1 l=2 w=2
X12 GNDA VDDA VDDA VDDA sky130_fd_pr__pfet_01v8 ad=0.4 pd=2.4 as=0.8 ps=4.8 w=2 l=0.15
X13 VOUT+ cap_res_Y sky130_fd_pr__cap_mim_m3_1 l=2 w=2
X14 VOUT- cap_res_X sky130_fd_pr__cap_mim_m3_1 l=2 w=2
X15 VDDA a_n2130_3450# VD3 VDDA sky130_fd_pr__pfet_01v8 ad=0.7 pd=3.9 as=0.7 ps=3.9 w=3.5 l=0.2
X16 V_source VIN+ VD2 GNDA sky130_fd_pr__nfet_01v8 ad=0.3 pd=1.9 as=0.3 ps=1.9 w=1.5 l=0.15
X17 VOUT+ cap_res_Y sky130_fd_pr__cap_mim_m3_1 l=2 w=2
X18 X a_120_3450# VD3 VD3 sky130_fd_pr__pfet_01v8 ad=0.7 pd=3.9 as=0.7 ps=3.9 w=3.5 l=0.2
X19 V_CMFB_S1 X GNDA VDDA sky130_fd_pr__pfet_01v8 ad=0.4 pd=2.4 as=0.4 ps=2.4 w=2 l=0.15
X20 VDDA X V_CMFB_S2 GNDA sky130_fd_pr__nfet_01v8 ad=0.6 pd=3.4 as=0.6 ps=3.4 w=3 l=0.15
X21 V_CMFB_S3 Y GNDA VDDA sky130_fd_pr__pfet_01v8 ad=0.4 pd=2.4 as=0.4 ps=2.4 w=2 l=0.15
X22 VOUT- cap_res_X sky130_fd_pr__cap_mim_m3_1 l=2 w=2
X23 VOUT- VDDA VDDA VDDA sky130_fd_pr__pfet_01v8 ad=1.2 pd=6.4 as=2.4 ps=12.8 w=6 l=0.15
X24 VDDA a_n2130_3450# VD4 VDDA sky130_fd_pr__pfet_01v8 ad=0.7 pd=3.9 as=0.7 ps=3.9 w=3.5 l=0.2
X25 VOUT- cap_res_X sky130_fd_pr__cap_mim_m3_1 l=2 w=2
X26 V_p_mir V_tail_gate GNDA GNDA sky130_fd_pr__nfet_01v8 ad=0.5 pd=2.9 as=0.5 ps=2.9 w=2.5 l=0.15
X27 VOUT+ cap_res_Y sky130_fd_pr__cap_mim_m3_1 l=2 w=2
X28 VOUT- cap_res_X sky130_fd_pr__cap_mim_m3_1 l=2 w=2
X29 VOUT- cap_res_X sky130_fd_pr__cap_mim_m3_1 l=2 w=2
X30 VDDA VDDA VDDA VDDA sky130_fd_pr__pfet_01v8 ad=0.72 pd=4.4 as=68.76 ps=379 w=1.8 l=0.2
X31 VDDA VDDA VD3 VDDA sky130_fd_pr__pfet_01v8 ad=1.4 pd=7.8 as=0.7 ps=3.9 w=3.5 l=0.2
X32 VOUT+ cap_res_Y sky130_fd_pr__cap_mim_m3_1 l=2 w=2
X33 VOUT+ cap_res_Y sky130_fd_pr__cap_mim_m3_1 l=2 w=2
X34 X a_120_3450# VD3 VD3 sky130_fd_pr__pfet_01v8 ad=0.7 pd=3.9 as=0.7 ps=3.9 w=3.5 l=0.2
X35 VDDA Y V_CMFB_S4 GNDA sky130_fd_pr__nfet_01v8 ad=0.6 pd=3.4 as=0.6 ps=3.4 w=3 l=0.15
X36 VDDA GNDA GNDA GNDA sky130_fd_pr__nfet_01v8 ad=0.6 pd=3.4 as=1.2 ps=6.8 w=3 l=0.15
X37 V_tail_gate GNDA GNDA GNDA sky130_fd_pr__nfet_01v8 ad=0.3 pd=1.9 as=0.6 ps=3.8 w=1.5 l=0.15
X38 VOUT- cap_res_X sky130_fd_pr__cap_mim_m3_1 l=2 w=2
X39 VOUT- cap_res_X sky130_fd_pr__cap_mim_m3_1 l=2 w=2
X40 VOUT+ cap_res_Y sky130_fd_pr__cap_mim_m3_1 l=2 w=2
X41 VDDA VDDA VDDA VDDA sky130_fd_pr__pfet_01v8 ad=0.7 pd=3.9 as=0 ps=0 w=3.5 l=0.2
X42 Y Vb1 VD2 GNDA sky130_fd_pr__nfet_01v8 ad=0.3 pd=1.9 as=0.3 ps=1.9 w=1.5 l=0.15
X43 VOUT+ cap_res_Y sky130_fd_pr__cap_mim_m3_1 l=2 w=2
X44 VD1 VIN- V_source GNDA sky130_fd_pr__nfet_01v8 ad=0.3 pd=1.9 as=0.3 ps=1.9 w=1.5 l=0.15
X45 VOUT- cap_res_X sky130_fd_pr__cap_mim_m3_1 l=2 w=2
X46 VDDA a_n2130_3450# VD4 VDDA sky130_fd_pr__pfet_01v8 ad=0.7 pd=3.9 as=0.7 ps=3.9 w=3.5 l=0.2
X47 VOUT+ cap_res_Y sky130_fd_pr__cap_mim_m3_1 l=2 w=2
X48 VOUT- cap_res_X sky130_fd_pr__cap_mim_m3_1 l=2 w=2
X49 VOUT- cap_res_X sky130_fd_pr__cap_mim_m3_1 l=2 w=2
X50 VOUT- cap_res_X sky130_fd_pr__cap_mim_m3_1 l=2 w=2
X51 VOUT+ cap_res_Y sky130_fd_pr__cap_mim_m3_1 l=2 w=2
X52 GNDA GNDA VD1 GNDA sky130_fd_pr__nfet_01v8 ad=0.6 pd=3.8 as=0.3 ps=1.9 w=1.5 l=0.15
X53 VOUT- cap_res_X sky130_fd_pr__cap_mim_m3_1 l=2 w=2
X54 VOUT+ cap_res_Y sky130_fd_pr__cap_mim_m3_1 l=2 w=2
X55 V_err_gate VDDA VDDA VDDA sky130_fd_pr__pfet_01v8 ad=0.5 pd=2.9 as=1 ps=5.8 w=2.5 l=0.15
X56 Y a_120_3450# VD4 VD4 sky130_fd_pr__pfet_01v8 ad=0.7 pd=3.9 as=0.7 ps=3.9 w=3.5 l=0.2
X57 VOUT- cap_res_X sky130_fd_pr__cap_mim_m3_1 l=2 w=2
X58 VOUT+ a_n2580_n2210# GNDA sky130_fd_pr__res_xhigh_po_0p35 l=2.63
X59 VOUT- cap_res_X sky130_fd_pr__cap_mim_m3_1 l=2 w=2
X60 VDDA VDDA V_err_gate VDDA sky130_fd_pr__pfet_01v8 ad=1 pd=5.8 as=0.5 ps=2.9 w=2.5 l=0.15
X61 VOUT+ cap_res_Y sky130_fd_pr__cap_mim_m3_1 l=2 w=2
X62 VD3 a_120_3450# X VD3 sky130_fd_pr__pfet_01v8 ad=0.7 pd=3.9 as=0.7 ps=3.9 w=3.5 l=0.2
X63 VOUT- cap_res_X sky130_fd_pr__cap_mim_m3_1 l=2 w=2
X64 VOUT+ cap_res_Y sky130_fd_pr__cap_mim_m3_1 l=2 w=2
X65 VOUT- cap_res_X sky130_fd_pr__cap_mim_m3_1 l=2 w=2
X66 VD1 VIN- V_source GNDA sky130_fd_pr__nfet_01v8 ad=0.3 pd=1.9 as=0.3 ps=1.9 w=1.5 l=0.15
X67 VOUT+ cap_res_Y sky130_fd_pr__cap_mim_m3_1 l=2 w=2
X68 VDDA X V_CMFB_S2 GNDA sky130_fd_pr__nfet_01v8 ad=0.6 pd=3.4 as=0.6 ps=3.4 w=3 l=0.15
X69 VDDA VDDA Vb2_2 VDDA sky130_fd_pr__pfet_01v8 ad=0.72 pd=4.4 as=0.36 ps=2.2 w=1.8 l=0.2
X70 Y GNDA GNDA GNDA sky130_fd_pr__nfet_01v8 ad=0.3 pd=1.9 as=0.6 ps=3.8 w=1.5 l=0.15
X71 VOUT- cap_res_X sky130_fd_pr__cap_mim_m3_1 l=2 w=2
X72 VOUT+ cap_res_Y sky130_fd_pr__cap_mim_m3_1 l=2 w=2
X73 V_source VIN+ VD2 GNDA sky130_fd_pr__nfet_01v8 ad=0.3 pd=1.9 as=0.3 ps=1.9 w=1.5 l=0.15
X74 VOUT- cap_res_X sky130_fd_pr__cap_mim_m3_1 l=2 w=2
X75 V_p_mir GNDA GNDA GNDA sky130_fd_pr__nfet_01v8 ad=0.5 pd=2.9 as=1 ps=5.8 w=2.5 l=0.15
X76 VD4 a_n2130_3450# VDDA VDDA sky130_fd_pr__pfet_01v8 ad=0.7 pd=3.9 as=0.7 ps=3.9 w=3.5 l=0.2
X77 VOUT- cap_res_X sky130_fd_pr__cap_mim_m3_1 l=2 w=2
X78 V_CMFB_S1 X GNDA VDDA sky130_fd_pr__pfet_01v8 ad=0.4 pd=2.4 as=0.4 ps=2.4 w=2 l=0.15
X79 VOUT- cap_res_X sky130_fd_pr__cap_mim_m3_1 l=2 w=2
X80 X Vb1 VD1 GNDA sky130_fd_pr__nfet_01v8 ad=0.3 pd=1.9 as=0.3 ps=1.9 w=1.5 l=0.15
X81 V_CMFB_S3 Y GNDA VDDA sky130_fd_pr__pfet_01v8 ad=0.4 pd=2.4 as=0.4 ps=2.4 w=2 l=0.15
X82 VOUT+ cap_res_Y sky130_fd_pr__cap_mim_m3_1 l=2 w=2
X83 VOUT- V_b_2nd_stage GNDA GNDA sky130_fd_pr__nfet_01v8 ad=1.4 pd=7.4 as=1.4 ps=7.4 w=7 l=0.6
X84 VOUT- cap_res_X sky130_fd_pr__cap_mim_m3_1 l=2 w=2
X85 GNDA X V_CMFB_S1 VDDA sky130_fd_pr__pfet_01v8 ad=0.4 pd=2.4 as=0.4 ps=2.4 w=2 l=0.15
X86 VOUT+ cap_res_Y sky130_fd_pr__cap_mim_m3_1 l=2 w=2
X87 VOUT+ cap_res_Y sky130_fd_pr__cap_mim_m3_1 l=2 w=2
X88 GNDA V_tail_gate V_source GNDA sky130_fd_pr__nfet_01v8 ad=0.5 pd=2.9 as=0.5 ps=2.9 w=2.5 l=0.15
X89 VOUT- cap_res_X sky130_fd_pr__cap_mim_m3_1 l=2 w=2
X90 VOUT- cap_res_X sky130_fd_pr__cap_mim_m3_1 l=2 w=2
X91 Y Vb1 VD2 GNDA sky130_fd_pr__nfet_01v8 ad=0.3 pd=1.9 as=0.3 ps=1.9 w=1.5 l=0.15
X92 VOUT+ cap_res_Y sky130_fd_pr__cap_mim_m3_1 l=2 w=2
X93 VDDA VDDA VOUT- VDDA sky130_fd_pr__pfet_01v8 ad=2.4 pd=12.8 as=1.2 ps=6.4 w=6 l=0.15
X94 VD3 a_n2130_3450# VDDA VDDA sky130_fd_pr__pfet_01v8 ad=0.7 pd=3.9 as=0.7 ps=3.9 w=3.5 l=0.2
X95 VOUT+ cap_res_Y sky130_fd_pr__cap_mim_m3_1 l=2 w=2
X96 VD3 a_120_3450# X VD3 sky130_fd_pr__pfet_01v8 ad=0.7 pd=3.9 as=0.7 ps=3.9 w=3.5 l=0.2
X97 VDDA VDDA GNDA VDDA sky130_fd_pr__pfet_01v8 ad=0.8 pd=4.8 as=0.4 ps=2.4 w=2 l=0.15
X98 VOUT+ cap_res_Y sky130_fd_pr__cap_mim_m3_1 l=2 w=2
X99 GNDA V_tail_gate V_source GNDA sky130_fd_pr__nfet_01v8 ad=0.5 pd=2.9 as=0.5 ps=2.9 w=2.5 l=0.15
X100 VOUT- cap_res_X sky130_fd_pr__cap_mim_m3_1 l=2 w=2
X101 GNDA V_tail_gate V_source GNDA sky130_fd_pr__nfet_01v8 ad=0.5 pd=2.9 as=0.5 ps=2.9 w=2.5 l=0.15
X102 VD1 GNDA GNDA GNDA sky130_fd_pr__nfet_01v8 ad=0.3 pd=1.9 as=0.6 ps=3.8 w=1.5 l=0.15
X103 VDDA Y VOUT+ VDDA sky130_fd_pr__pfet_01v8 ad=1.2 pd=6.4 as=1.2 ps=6.4 w=6 l=0.15
X104 VOUT+ cap_res_Y sky130_fd_pr__cap_mim_m3_1 l=2 w=2
X105 VOUT+ cap_res_Y sky130_fd_pr__cap_mim_m3_1 l=2 w=2
X106 VOUT- cap_res_X sky130_fd_pr__cap_mim_m3_1 l=2 w=2
X107 V_err_mir_p V_err_gate VDDA VDDA sky130_fd_pr__pfet_01v8 ad=0.5 pd=2.9 as=0.5 ps=2.9 w=2.5 l=0.15
X108 VOUT+ cap_res_Y sky130_fd_pr__cap_mim_m3_1 l=2 w=2
X109 GNDA V_b_2nd_stage VOUT+ GNDA sky130_fd_pr__nfet_01v8 ad=1.4 pd=7.4 as=1.4 ps=7.4 w=7 l=0.6
X110 V_source VIN- VD1 GNDA sky130_fd_pr__nfet_01v8 ad=0.3 pd=1.9 as=0.3 ps=1.9 w=1.5 l=0.15
X111 VD4 a_n2130_3450# VDDA VDDA sky130_fd_pr__pfet_01v8 ad=0.7 pd=3.9 as=0.7 ps=3.9 w=3.5 l=0.2
X112 VDDA GNDA GNDA GNDA sky130_fd_pr__nfet_01v8 ad=0.6 pd=3.4 as=1.2 ps=6.8 w=3 l=0.15
X113 VOUT- cap_res_X sky130_fd_pr__cap_mim_m3_1 l=2 w=2
X114 VOUT- cap_res_X sky130_fd_pr__cap_mim_m3_1 l=2 w=2
X115 VOUT+ cap_res_Y sky130_fd_pr__cap_mim_m3_1 l=2 w=2
X116 VD3 VD3 X VD3 sky130_fd_pr__pfet_01v8 ad=1.4 pd=7.8 as=0.7 ps=3.9 w=3.5 l=0.2
X117 VOUT- cap_res_X sky130_fd_pr__cap_mim_m3_1 l=2 w=2
X118 VOUT- cap_res_X sky130_fd_pr__cap_mim_m3_1 l=2 w=2
X119 VOUT- cap_res_X sky130_fd_pr__cap_mim_m3_1 l=2 w=2
X120 VOUT+ cap_res_Y sky130_fd_pr__cap_mim_m3_1 l=2 w=2
X121 VOUT+ cap_res_Y sky130_fd_pr__cap_mim_m3_1 l=2 w=2
X122 VD1 VIN- V_source GNDA sky130_fd_pr__nfet_01v8 ad=0.3 pd=1.9 as=0.3 ps=1.9 w=1.5 l=0.15
X123 X GNDA GNDA GNDA sky130_fd_pr__nfet_01v8 ad=0.3 pd=1.9 as=0.6 ps=3.8 w=1.5 l=0.15
X124 VOUT- cap_res_X sky130_fd_pr__cap_mim_m3_1 l=2 w=2
X125 VOUT+ Y VDDA VDDA sky130_fd_pr__pfet_01v8 ad=1.2 pd=6.4 as=1.2 ps=6.4 w=6 l=0.15
X126 V_b_2nd_stage a_5770_n2210# GNDA sky130_fd_pr__res_xhigh_po_0p35 l=2.63
X127 VD4 VDDA VDDA VDDA sky130_fd_pr__pfet_01v8 ad=0.7 pd=3.9 as=1.4 ps=7.8 w=3.5 l=0.2
X128 VOUT- cap_res_X sky130_fd_pr__cap_mim_m3_1 l=2 w=2
X129 VOUT- cap_res_X sky130_fd_pr__cap_mim_m3_1 l=2 w=2
X130 Vb1_2 Vb1 Vb1 GNDA sky130_fd_pr__nfet_01v8 ad=0.3 pd=1.9 as=0.3 ps=1.9 w=1.5 l=0.15
X131 VD2 VIN+ V_source GNDA sky130_fd_pr__nfet_01v8 ad=0.3 pd=1.9 as=0.3 ps=1.9 w=1.5 l=0.15
X132 Y Vb1 VD2 GNDA sky130_fd_pr__nfet_01v8 ad=0.3 pd=1.9 as=0.3 ps=1.9 w=1.5 l=0.15
X133 VOUT- cap_res_X sky130_fd_pr__cap_mim_m3_1 l=2 w=2
X134 GNDA GNDA Vb1 GNDA sky130_fd_pr__nfet_01v8 ad=0.6 pd=3.8 as=0.3 ps=1.9 w=1.5 l=0.15
X135 VOUT- cap_res_X sky130_fd_pr__cap_mim_m3_1 l=2 w=2
X136 VOUT+ cap_res_Y sky130_fd_pr__cap_mim_m3_1 l=2 w=2
X137 VOUT+ cap_res_Y sky130_fd_pr__cap_mim_m3_1 l=2 w=2
X138 VDDA X VOUT- VDDA sky130_fd_pr__pfet_01v8 ad=1.2 pd=6.4 as=1.2 ps=6.4 w=6 l=0.15
X139 V_source Vb1 Vb1_2 GNDA sky130_fd_pr__nfet_01v8 ad=0.6 pd=3.8 as=0.6 ps=3.8 w=1.5 l=3
X140 VOUT- cap_res_X sky130_fd_pr__cap_mim_m3_1 l=2 w=2
X141 VD4 a_120_3450# Y VD4 sky130_fd_pr__pfet_01v8 ad=0.7 pd=3.9 as=0.7 ps=3.9 w=3.5 l=0.2
X142 VOUT+ cap_res_Y sky130_fd_pr__cap_mim_m3_1 l=2 w=2
X143 GNDA X V_CMFB_S1 VDDA sky130_fd_pr__pfet_01v8 ad=0.4 pd=2.4 as=0.4 ps=2.4 w=2 l=0.15
X144 VD1 Vb1 X GNDA sky130_fd_pr__nfet_01v8 ad=0.3 pd=1.9 as=0.3 ps=1.9 w=1.5 l=0.15
X145 VDDA Y VOUT+ VDDA sky130_fd_pr__pfet_01v8 ad=1.2 pd=6.4 as=1.2 ps=6.4 w=6 l=0.15
X146 VOUT+ cap_res_Y sky130_fd_pr__cap_mim_m3_1 l=2 w=2
X147 VOUT- cap_res_X sky130_fd_pr__cap_mim_m3_1 l=2 w=2
X148 V_err_mir_p V_err_amp_ref V_err_gate VDDA sky130_fd_pr__pfet_01v8 ad=0.5 pd=2.9 as=0.5 ps=2.9 w=2.5 l=0.15
X149 err_amp_mir VDDA VDDA VDDA sky130_fd_pr__pfet_01v8 ad=0.5 pd=2.9 as=1 ps=5.8 w=2.5 l=0.15
X150 VOUT- cap_res_X sky130_fd_pr__cap_mim_m3_1 l=2 w=2
X151 VOUT- cap_res_X sky130_fd_pr__cap_mim_m3_1 l=2 w=2
X152 VOUT- cap_res_X sky130_fd_pr__cap_mim_m3_1 l=2 w=2
X153 VOUT+ cap_res_Y sky130_fd_pr__cap_mim_m3_1 l=2 w=2
X154 VOUT- cap_res_X sky130_fd_pr__cap_mim_m3_1 l=2 w=2
X155 VOUT- cap_res_X sky130_fd_pr__cap_mim_m3_1 l=2 w=2
X156 GNDA V_tail_gate V_source GNDA sky130_fd_pr__nfet_01v8 ad=0.5 pd=2.9 as=0.5 ps=2.9 w=2.5 l=0.15
X157 V_source V_tail_gate GNDA GNDA sky130_fd_pr__nfet_01v8 ad=0.5 pd=2.9 as=0.5 ps=2.9 w=2.5 l=0.15
X158 GNDA V_tail_gate V_source GNDA sky130_fd_pr__nfet_01v8 ad=0.5 pd=2.9 as=0.5 ps=2.9 w=2.5 l=0.15
X159 VOUT+ cap_res_Y sky130_fd_pr__cap_mim_m3_1 l=2 w=2
X160 VOUT+ cap_res_Y sky130_fd_pr__cap_mim_m3_1 l=2 w=2
X161 V_source VIN- VD1 GNDA sky130_fd_pr__nfet_01v8 ad=0.3 pd=1.9 as=0.3 ps=1.9 w=1.5 l=0.15
X162 VOUT+ cap_res_Y sky130_fd_pr__cap_mim_m3_1 l=2 w=2
X163 VOUT- cap_res_X sky130_fd_pr__cap_mim_m3_1 l=2 w=2
X164 VOUT- cap_res_X sky130_fd_pr__cap_mim_m3_1 l=2 w=2
X165 VOUT- cap_res_X sky130_fd_pr__cap_mim_m3_1 l=2 w=2
X166 VD4 a_120_3450# Y VD4 sky130_fd_pr__pfet_01v8 ad=0.7 pd=3.9 as=0.7 ps=3.9 w=3.5 l=0.2
X167 VOUT+ cap_res_Y sky130_fd_pr__cap_mim_m3_1 l=2 w=2
X168 VOUT+ cap_res_Y sky130_fd_pr__cap_mim_m3_1 l=2 w=2
X169 Y Vb1 VD2 GNDA sky130_fd_pr__nfet_01v8 ad=0.3 pd=1.9 as=0.3 ps=1.9 w=1.5 l=0.15
X170 VOUT- cap_res_X sky130_fd_pr__cap_mim_m3_1 l=2 w=2
X171 GNDA V_b_2nd_stage VOUT- GNDA sky130_fd_pr__nfet_01v8 ad=1.4 pd=7.4 as=1.4 ps=7.4 w=7 l=0.6
X172 GNDA GNDA VDDA GNDA sky130_fd_pr__nfet_01v8 ad=1.2 pd=6.8 as=0.6 ps=3.4 w=3 l=0.15
X173 Y Vb1 VD2 GNDA sky130_fd_pr__nfet_01v8 ad=0.3 pd=1.9 as=0.3 ps=1.9 w=1.5 l=0.15
X174 VDDA X VOUT- VDDA sky130_fd_pr__pfet_01v8 ad=1.2 pd=6.4 as=1.2 ps=6.4 w=6 l=0.15
X175 a_n2980_594# V_CMFB_S4 GNDA sky130_fd_pr__res_xhigh_po_0p35 l=1.75
X176 VOUT+ cap_res_Y sky130_fd_pr__cap_mim_m3_1 l=2 w=2
X177 VDDA X VOUT- VDDA sky130_fd_pr__pfet_01v8 ad=1.2 pd=6.4 as=1.2 ps=6.4 w=6 l=0.15
X178 VOUT- cap_res_X sky130_fd_pr__cap_mim_m3_1 l=2 w=2
X179 X a_120_3450# VD3 VD3 sky130_fd_pr__pfet_01v8 ad=0.7 pd=3.9 as=0.7 ps=3.9 w=3.5 l=0.2
X180 VOUT+ cap_res_Y sky130_fd_pr__cap_mim_m3_1 l=2 w=2
X181 VOUT+ cap_res_Y sky130_fd_pr__cap_mim_m3_1 l=2 w=2
X182 VOUT- cap_res_X sky130_fd_pr__cap_mim_m3_1 l=2 w=2
X183 VOUT+ cap_res_Y sky130_fd_pr__cap_mim_m3_1 l=2 w=2
X184 VD1 Vb1 X GNDA sky130_fd_pr__nfet_01v8 ad=0.3 pd=1.9 as=0.3 ps=1.9 w=1.5 l=0.15
X185 VD2 VIN+ V_source GNDA sky130_fd_pr__nfet_01v8 ad=0.3 pd=1.9 as=0.3 ps=1.9 w=1.5 l=0.15
X186 V_CMFB_S4 Y VDDA GNDA sky130_fd_pr__nfet_01v8 ad=0.6 pd=3.4 as=0.6 ps=3.4 w=3 l=0.15
X187 GNDA GNDA X GNDA sky130_fd_pr__nfet_01v8 ad=0.6 pd=3.8 as=0.3 ps=1.9 w=1.5 l=0.15
X188 VOUT- cap_res_X sky130_fd_pr__cap_mim_m3_1 l=2 w=2
X189 VOUT- cap_res_X sky130_fd_pr__cap_mim_m3_1 l=2 w=2
X190 VDDA a_n2130_3450# VD4 VDDA sky130_fd_pr__pfet_01v8 ad=0.7 pd=3.9 as=0.7 ps=3.9 w=3.5 l=0.2
X191 VDDA Y VOUT+ VDDA sky130_fd_pr__pfet_01v8 ad=1.2 pd=6.4 as=1.2 ps=6.4 w=6 l=0.15
X192 VOUT- cap_res_X sky130_fd_pr__cap_mim_m3_1 l=2 w=2
X193 VOUT+ cap_res_Y sky130_fd_pr__cap_mim_m3_1 l=2 w=2
X194 VOUT- cap_res_X sky130_fd_pr__cap_mim_m3_1 l=2 w=2
X195 GNDA X V_CMFB_S1 VDDA sky130_fd_pr__pfet_01v8 ad=0.4 pd=2.4 as=0.4 ps=2.4 w=2 l=0.15
X196 VOUT- cap_res_X sky130_fd_pr__cap_mim_m3_1 l=2 w=2
X197 GNDA Y V_CMFB_S3 VDDA sky130_fd_pr__pfet_01v8 ad=0.4 pd=2.4 as=0.4 ps=2.4 w=2 l=0.15
X198 VOUT- cap_res_X sky130_fd_pr__cap_mim_m3_1 l=2 w=2
X199 VOUT+ cap_res_Y sky130_fd_pr__cap_mim_m3_1 l=2 w=2
X200 Vb2_Vb3 Vb2_Vb3 Vb2_Vb3 Vb2_Vb3 sky130_fd_pr__pfet_01v8 ad=1.4 pd=7.8 as=5.6 ps=31.2 w=3.5 l=0.2
X201 VOUT+ cap_res_Y sky130_fd_pr__cap_mim_m3_1 l=2 w=2
X202 VOUT+ V_b_2nd_stage GNDA GNDA sky130_fd_pr__nfet_01v8 ad=1.4 pd=7.4 as=1.4 ps=7.4 w=7 l=0.6
X203 VOUT+ cap_res_Y sky130_fd_pr__cap_mim_m3_1 l=2 w=2
X204 err_amp_out err_amp_mir GNDA GNDA sky130_fd_pr__nfet_01v8 ad=0.5 pd=2.9 as=0.5 ps=2.9 w=2.5 l=0.15
X205 VOUT- cap_res_X sky130_fd_pr__cap_mim_m3_1 l=2 w=2
X206 VOUT+ cap_res_Y sky130_fd_pr__cap_mim_m3_1 l=2 w=2
X207 VOUT- cap_res_X sky130_fd_pr__cap_mim_m3_1 l=2 w=2
X208 VDDA Y V_CMFB_S4 GNDA sky130_fd_pr__nfet_01v8 ad=0.6 pd=3.4 as=0.6 ps=3.4 w=3 l=0.15
X209 GNDA GNDA V_tail_gate GNDA sky130_fd_pr__nfet_01v8 ad=0.6 pd=3.8 as=0.3 ps=1.9 w=1.5 l=0.15
X210 VOUT+ cap_res_Y sky130_fd_pr__cap_mim_m3_1 l=2 w=2
X211 VOUT- cap_res_X sky130_fd_pr__cap_mim_m3_1 l=2 w=2
X212 VOUT- cap_res_X sky130_fd_pr__cap_mim_m3_1 l=2 w=2
X213 VOUT+ cap_res_Y sky130_fd_pr__cap_mim_m3_1 l=2 w=2
X214 V_CMFB_S2 X VDDA GNDA sky130_fd_pr__nfet_01v8 ad=0.6 pd=3.4 as=0.6 ps=3.4 w=3 l=0.15
X215 VDDA X VOUT- VDDA sky130_fd_pr__pfet_01v8 ad=1.2 pd=6.4 as=1.2 ps=6.4 w=6 l=0.15
X216 Y a_120_3450# VD4 VD4 sky130_fd_pr__pfet_01v8 ad=0.7 pd=3.9 as=0.7 ps=3.9 w=3.5 l=0.2
X217 VOUT- cap_res_X sky130_fd_pr__cap_mim_m3_1 l=2 w=2
X218 VDDA a_n2130_3450# VD3 VDDA sky130_fd_pr__pfet_01v8 ad=0.7 pd=3.9 as=0.7 ps=3.9 w=3.5 l=0.2
X219 VOUT- cap_res_X sky130_fd_pr__cap_mim_m3_1 l=2 w=2
X220 VOUT- cap_res_X sky130_fd_pr__cap_mim_m3_1 l=2 w=2
X221 VD1 Vb1 X GNDA sky130_fd_pr__nfet_01v8 ad=0.3 pd=1.9 as=0.3 ps=1.9 w=1.5 l=0.15
X222 V_CMFB_S4 Y VDDA GNDA sky130_fd_pr__nfet_01v8 ad=0.6 pd=3.4 as=0.6 ps=3.4 w=3 l=0.15
X223 VOUT+ cap_res_Y sky130_fd_pr__cap_mim_m3_1 l=2 w=2
X224 VOUT- cap_res_X sky130_fd_pr__cap_mim_m3_1 l=2 w=2
X225 VDDA Y VOUT+ VDDA sky130_fd_pr__pfet_01v8 ad=1.2 pd=6.4 as=1.2 ps=6.4 w=6 l=0.15
X226 VOUT+ cap_res_Y sky130_fd_pr__cap_mim_m3_1 l=2 w=2
X227 VOUT+ cap_res_Y sky130_fd_pr__cap_mim_m3_1 l=2 w=2
X228 VOUT+ cap_res_Y sky130_fd_pr__cap_mim_m3_1 l=2 w=2
X229 err_amp_out V_err_amp_ref V_err_p VDDA sky130_fd_pr__pfet_01v8 ad=0.5 pd=2.9 as=0.5 ps=2.9 w=2.5 l=0.15
X230 VOUT+ cap_res_Y sky130_fd_pr__cap_mim_m3_1 l=2 w=2
X231 VOUT- cap_res_X sky130_fd_pr__cap_mim_m3_1 l=2 w=2
X232 VOUT- cap_res_X sky130_fd_pr__cap_mim_m3_1 l=2 w=2
X233 VOUT+ cap_res_Y sky130_fd_pr__cap_mim_m3_1 l=2 w=2
X234 VOUT+ cap_res_Y sky130_fd_pr__cap_mim_m3_1 l=2 w=2
X235 VD2 VIN+ V_source GNDA sky130_fd_pr__nfet_01v8 ad=0.3 pd=1.9 as=0.3 ps=1.9 w=1.5 l=0.15
X236 a_120_3450# Vb2_2 Vb2_2 Vb2_2 sky130_fd_pr__pfet_01v8 ad=0.7 pd=3.9 as=1.4 ps=7.8 w=3.5 l=0.2
X237 err_amp_mir GNDA GNDA GNDA sky130_fd_pr__nfet_01v8 ad=0.5 pd=2.9 as=1 ps=5.8 w=2.5 l=0.15
X238 VOUT- cap_res_X sky130_fd_pr__cap_mim_m3_1 l=2 w=2
X239 VD3 VDDA VDDA VDDA sky130_fd_pr__pfet_01v8 ad=0.7 pd=3.9 as=1.4 ps=7.8 w=3.5 l=0.2
X240 cap_res_X X GNDA sky130_fd_pr__res_high_po_1p41 l=1.41
X241 VOUT- cap_res_X sky130_fd_pr__cap_mim_m3_1 l=2 w=2
X242 GNDA X V_CMFB_S1 VDDA sky130_fd_pr__pfet_01v8 ad=0.4 pd=2.4 as=0.4 ps=2.4 w=2 l=0.15
X243 VOUT+ cap_res_Y sky130_fd_pr__cap_mim_m3_1 l=2 w=2
X244 VOUT- cap_res_X sky130_fd_pr__cap_mim_m3_1 l=2 w=2
X245 VOUT- cap_res_X sky130_fd_pr__cap_mim_m3_1 l=2 w=2
X246 GNDA Y V_CMFB_S3 VDDA sky130_fd_pr__pfet_01v8 ad=0.4 pd=2.4 as=0.4 ps=2.4 w=2 l=0.15
X247 VOUT+ cap_res_Y sky130_fd_pr__cap_mim_m3_1 l=2 w=2
X248 VOUT+ cap_res_Y sky130_fd_pr__cap_mim_m3_1 l=2 w=2
X249 Y a_120_3450# VD4 VD4 sky130_fd_pr__pfet_01v8 ad=0.7 pd=3.9 as=0.7 ps=3.9 w=3.5 l=0.2
X250 VD2 Vb1 Y GNDA sky130_fd_pr__nfet_01v8 ad=0.3 pd=1.9 as=0.3 ps=1.9 w=1.5 l=0.15
X251 GNDA GNDA VOUT- GNDA sky130_fd_pr__nfet_01v8 ad=2.8 pd=14.8 as=1.4 ps=7.4 w=7 l=0.6
X252 V_source V_tail_gate GNDA GNDA sky130_fd_pr__nfet_01v8 ad=0.5 pd=2.9 as=0.5 ps=2.9 w=2.5 l=0.15
X253 VOUT- cap_res_X sky130_fd_pr__cap_mim_m3_1 l=2 w=2
X254 VOUT- cap_res_X sky130_fd_pr__cap_mim_m3_1 l=2 w=2
X255 V_CMFB_S2 X VDDA GNDA sky130_fd_pr__nfet_01v8 ad=0.6 pd=3.4 as=0.6 ps=3.4 w=3 l=0.15
X256 VD3 a_120_3450# X VD3 sky130_fd_pr__pfet_01v8 ad=0.7 pd=3.9 as=0.7 ps=3.9 w=3.5 l=0.2
X257 VOUT+ cap_res_Y sky130_fd_pr__cap_mim_m3_1 l=2 w=2
X258 V_CMFB_S2 X VDDA GNDA sky130_fd_pr__nfet_01v8 ad=0.6 pd=3.4 as=0.6 ps=3.4 w=3 l=0.15
X259 VOUT+ cap_res_Y sky130_fd_pr__cap_mim_m3_1 l=2 w=2
X260 VDDA X VOUT- VDDA sky130_fd_pr__pfet_01v8 ad=1.2 pd=6.4 as=1.2 ps=6.4 w=6 l=0.15
X261 GNDA GNDA V_p_mir GNDA sky130_fd_pr__nfet_01v8 ad=1 pd=5.8 as=0.5 ps=2.9 w=2.5 l=0.15
X262 GNDA GNDA Y GNDA sky130_fd_pr__nfet_01v8 ad=0.6 pd=3.8 as=0.3 ps=1.9 w=1.5 l=0.15
X263 VOUT- cap_res_X sky130_fd_pr__cap_mim_m3_1 l=2 w=2
X264 VOUT+ cap_res_Y sky130_fd_pr__cap_mim_m3_1 l=2 w=2
X265 VOUT+ cap_res_Y sky130_fd_pr__cap_mim_m3_1 l=2 w=2
X266 VOUT- GNDA GNDA GNDA sky130_fd_pr__nfet_01v8 ad=1.4 pd=7.4 as=2.8 ps=14.8 w=7 l=0.6
X267 V_p_mir VIN+ V_tail_gate GNDA sky130_fd_pr__nfet_01v8 ad=0.3 pd=1.9 as=0.3 ps=1.9 w=1.5 l=0.15
X268 VOUT- cap_res_X sky130_fd_pr__cap_mim_m3_1 l=2 w=2
X269 GNDA V_tail_gate V_source GNDA sky130_fd_pr__nfet_01v8 ad=0.5 pd=2.9 as=0.5 ps=2.9 w=2.5 l=0.15
X270 a_n2860_594# V_CMFB_S3 GNDA sky130_fd_pr__res_xhigh_po_0p35 l=1.75
X271 VOUT+ cap_res_Y sky130_fd_pr__cap_mim_m3_1 l=2 w=2
X272 V_source V_tail_gate GNDA GNDA sky130_fd_pr__nfet_01v8 ad=0.5 pd=2.9 as=0.5 ps=2.9 w=2.5 l=0.15
X273 VD4 a_n2130_3450# VDDA VDDA sky130_fd_pr__pfet_01v8 ad=0.7 pd=3.9 as=0.7 ps=3.9 w=3.5 l=0.2
X274 GNDA GNDA V_source GNDA sky130_fd_pr__nfet_01v8 ad=1 pd=5.8 as=0.5 ps=2.9 w=2.5 l=0.15
X275 VD1 Vb1 X GNDA sky130_fd_pr__nfet_01v8 ad=0.3 pd=1.9 as=0.3 ps=1.9 w=1.5 l=0.15
X276 VOUT- cap_res_X sky130_fd_pr__cap_mim_m3_1 l=2 w=2
X277 V_source V_tail_gate GNDA GNDA sky130_fd_pr__nfet_01v8 ad=0.5 pd=2.9 as=0.5 ps=2.9 w=2.5 l=0.15
X278 V_CMFB_S4 Y VDDA GNDA sky130_fd_pr__nfet_01v8 ad=0.6 pd=3.4 as=0.6 ps=3.4 w=3 l=0.15
X279 VOUT+ cap_res_Y sky130_fd_pr__cap_mim_m3_1 l=2 w=2
X280 VOUT- cap_res_X sky130_fd_pr__cap_mim_m3_1 l=2 w=2
X281 V_b_2nd_stage a_n2580_n2210# GNDA sky130_fd_pr__res_xhigh_po_0p35 l=2.63
X282 VDDA V_err_gate V_err_p VDDA sky130_fd_pr__pfet_01v8 ad=0.5 pd=2.9 as=0.5 ps=2.9 w=2.5 l=0.15
X283 VOUT+ cap_res_Y sky130_fd_pr__cap_mim_m3_1 l=2 w=2
X284 VD3 a_n2130_3450# VDDA VDDA sky130_fd_pr__pfet_01v8 ad=0.7 pd=3.9 as=0.7 ps=3.9 w=3.5 l=0.2
X285 VOUT- cap_res_X sky130_fd_pr__cap_mim_m3_1 l=2 w=2
X286 VOUT- cap_res_X sky130_fd_pr__cap_mim_m3_1 l=2 w=2
X287 VOUT+ cap_res_Y sky130_fd_pr__cap_mim_m3_1 l=2 w=2
X288 GNDA Y V_CMFB_S3 VDDA sky130_fd_pr__pfet_01v8 ad=0.4 pd=2.4 as=0.4 ps=2.4 w=2 l=0.15
X289 VOUT+ cap_res_Y sky130_fd_pr__cap_mim_m3_1 l=2 w=2
X290 VOUT+ cap_res_Y sky130_fd_pr__cap_mim_m3_1 l=2 w=2
X291 VOUT+ cap_res_Y sky130_fd_pr__cap_mim_m3_1 l=2 w=2
X292 GNDA V_b_2nd_stage VOUT+ GNDA sky130_fd_pr__nfet_01v8 ad=1.4 pd=7.4 as=1.4 ps=7.4 w=7 l=0.6
X293 V_CMFB_S3 Y GNDA VDDA sky130_fd_pr__pfet_01v8 ad=0.4 pd=2.4 as=0.4 ps=2.4 w=2 l=0.15
X294 VD2 VIN+ V_source GNDA sky130_fd_pr__nfet_01v8 ad=0.3 pd=1.9 as=0.3 ps=1.9 w=1.5 l=0.15
X295 VOUT- cap_res_X sky130_fd_pr__cap_mim_m3_1 l=2 w=2
X296 VOUT- cap_res_X sky130_fd_pr__cap_mim_m3_1 l=2 w=2
X297 VOUT- cap_res_X sky130_fd_pr__cap_mim_m3_1 l=2 w=2
X298 VOUT+ cap_res_Y sky130_fd_pr__cap_mim_m3_1 l=2 w=2
X299 VOUT+ cap_res_Y sky130_fd_pr__cap_mim_m3_1 l=2 w=2
X300 VOUT+ cap_res_Y sky130_fd_pr__cap_mim_m3_1 l=2 w=2
X301 Vb1 GNDA GNDA GNDA sky130_fd_pr__nfet_01v8 ad=0.3 pd=1.9 as=0.6 ps=3.8 w=1.5 l=0.15
X302 Vb1 Vb1 Vb1_2 GNDA sky130_fd_pr__nfet_01v8 ad=0.3 pd=1.9 as=0.3 ps=1.9 w=1.5 l=0.15
X303 V_CMFB_S2 X VDDA GNDA sky130_fd_pr__nfet_01v8 ad=0.6 pd=3.4 as=0.6 ps=3.4 w=3 l=0.15
X304 VD3 a_n2130_3450# VDDA VDDA sky130_fd_pr__pfet_01v8 ad=0.7 pd=3.9 as=0.7 ps=3.9 w=3.5 l=0.2
X305 VOUT- cap_res_X sky130_fd_pr__cap_mim_m3_1 l=2 w=2
X306 VOUT+ cap_res_Y sky130_fd_pr__cap_mim_m3_1 l=2 w=2
X307 VOUT+ cap_res_Y sky130_fd_pr__cap_mim_m3_1 l=2 w=2
X308 GNDA X V_CMFB_S1 VDDA sky130_fd_pr__pfet_01v8 ad=0.4 pd=2.4 as=0.4 ps=2.4 w=2 l=0.15
X309 VD2 GNDA GNDA GNDA sky130_fd_pr__nfet_01v8 ad=0.3 pd=1.9 as=0.6 ps=3.8 w=1.5 l=0.15
X310 GNDA V_tail_gate V_p_mir GNDA sky130_fd_pr__nfet_01v8 ad=0.5 pd=2.9 as=0.5 ps=2.9 w=2.5 l=0.15
X311 VOUT+ cap_res_Y sky130_fd_pr__cap_mim_m3_1 l=2 w=2
X312 VOUT+ cap_res_Y sky130_fd_pr__cap_mim_m3_1 l=2 w=2
X313 GNDA Y V_CMFB_S3 VDDA sky130_fd_pr__pfet_01v8 ad=0.4 pd=2.4 as=0.4 ps=2.4 w=2 l=0.15
X314 VOUT- cap_res_X sky130_fd_pr__cap_mim_m3_1 l=2 w=2
X315 VOUT+ cap_res_Y sky130_fd_pr__cap_mim_m3_1 l=2 w=2
X316 VDDA VDDA GNDA VDDA sky130_fd_pr__pfet_01v8 ad=0.8 pd=4.8 as=0.4 ps=2.4 w=2 l=0.15
X317 VDDA VDDA VD4 VDDA sky130_fd_pr__pfet_01v8 ad=1.4 pd=7.8 as=0.7 ps=3.9 w=3.5 l=0.2
X318 VOUT- cap_res_X sky130_fd_pr__cap_mim_m3_1 l=2 w=2
X319 VOUT- cap_res_X sky130_fd_pr__cap_mim_m3_1 l=2 w=2
X320 V_CMFB_S4 Y VDDA GNDA sky130_fd_pr__nfet_01v8 ad=0.6 pd=3.4 as=0.6 ps=3.4 w=3 l=0.15
X321 VOUT+ cap_res_Y sky130_fd_pr__cap_mim_m3_1 l=2 w=2
X322 VOUT+ cap_res_Y sky130_fd_pr__cap_mim_m3_1 l=2 w=2
X323 VOUT+ cap_res_Y sky130_fd_pr__cap_mim_m3_1 l=2 w=2
X324 VOUT- cap_res_X sky130_fd_pr__cap_mim_m3_1 l=2 w=2
X325 VOUT- cap_res_X sky130_fd_pr__cap_mim_m3_1 l=2 w=2
X326 VOUT- cap_res_X sky130_fd_pr__cap_mim_m3_1 l=2 w=2
X327 VOUT+ cap_res_Y sky130_fd_pr__cap_mim_m3_1 l=2 w=2
X328 a_6050_594# V_CMFB_S1 GNDA sky130_fd_pr__res_xhigh_po_0p35 l=1.75
X329 VD2 Vb1 Y GNDA sky130_fd_pr__nfet_01v8 ad=0.3 pd=1.9 as=0.3 ps=1.9 w=1.5 l=0.15
X330 VOUT+ cap_res_Y sky130_fd_pr__cap_mim_m3_1 l=2 w=2
X331 Vb2_2 a_120_3450# a_120_3450# Vb2_2 sky130_fd_pr__pfet_01v8 ad=0.7 pd=3.9 as=0.7 ps=3.9 w=3.5 l=0.2
X332 VOUT+ cap_res_Y sky130_fd_pr__cap_mim_m3_1 l=2 w=2
X333 VOUT- cap_res_X sky130_fd_pr__cap_mim_m3_1 l=2 w=2
X334 VOUT+ cap_res_Y sky130_fd_pr__cap_mim_m3_1 l=2 w=2
X335 GNDA V_tail_gate V_source GNDA sky130_fd_pr__nfet_01v8 ad=0.5 pd=2.9 as=0.5 ps=2.9 w=2.5 l=0.15
X336 V_source VIN- VD1 GNDA sky130_fd_pr__nfet_01v8 ad=0.3 pd=1.9 as=0.3 ps=1.9 w=1.5 l=0.15
X337 VDDA a_n2130_3450# VD3 VDDA sky130_fd_pr__pfet_01v8 ad=0.7 pd=3.9 as=0.7 ps=3.9 w=3.5 l=0.2
X338 GNDA V_tail_gate V_source GNDA sky130_fd_pr__nfet_01v8 ad=0.5 pd=2.9 as=0.5 ps=2.9 w=2.5 l=0.15
X339 V_source V_tail_gate GNDA GNDA sky130_fd_pr__nfet_01v8 ad=0.5 pd=2.9 as=0.5 ps=2.9 w=2.5 l=0.15
X340 X VD3 VD3 VD3 sky130_fd_pr__pfet_01v8 ad=0.7 pd=3.9 as=1.4 ps=7.8 w=3.5 l=0.2
X341 VD4 a_120_3450# Y VD4 sky130_fd_pr__pfet_01v8 ad=0.7 pd=3.9 as=0.7 ps=3.9 w=3.5 l=0.2
X342 VOUT- cap_res_X sky130_fd_pr__cap_mim_m3_1 l=2 w=2
X343 VOUT+ cap_res_Y sky130_fd_pr__cap_mim_m3_1 l=2 w=2
X344 VD1 VIN- V_source GNDA sky130_fd_pr__nfet_01v8 ad=0.3 pd=1.9 as=0.3 ps=1.9 w=1.5 l=0.15
X345 VOUT+ cap_res_Y sky130_fd_pr__cap_mim_m3_1 l=2 w=2
X346 VOUT+ Y VDDA VDDA sky130_fd_pr__pfet_01v8 ad=1.2 pd=6.4 as=1.2 ps=6.4 w=6 l=0.15
X347 VOUT- cap_res_X sky130_fd_pr__cap_mim_m3_1 l=2 w=2
X348 VOUT- cap_res_X sky130_fd_pr__cap_mim_m3_1 l=2 w=2
X349 X a_120_3450# VD3 VD3 sky130_fd_pr__pfet_01v8 ad=0.7 pd=3.9 as=0.7 ps=3.9 w=3.5 l=0.2
X350 V_err_gate V_tot V_err_mir_p VDDA sky130_fd_pr__pfet_01v8 ad=0.5 pd=2.9 as=0.5 ps=2.9 w=2.5 l=0.15
X351 VOUT+ cap_res_Y sky130_fd_pr__cap_mim_m3_1 l=2 w=2
X352 VOUT+ cap_res_Y sky130_fd_pr__cap_mim_m3_1 l=2 w=2
X353 V_CMFB_S2 X VDDA GNDA sky130_fd_pr__nfet_01v8 ad=0.6 pd=3.4 as=0.6 ps=3.4 w=3 l=0.15
X354 VOUT- cap_res_X sky130_fd_pr__cap_mim_m3_1 l=2 w=2
X355 VOUT- V_b_2nd_stage GNDA GNDA sky130_fd_pr__nfet_01v8 ad=1.4 pd=7.4 as=1.4 ps=7.4 w=7 l=0.6
X356 V_source VIN- VD1 GNDA sky130_fd_pr__nfet_01v8 ad=0.3 pd=1.9 as=0.3 ps=1.9 w=1.5 l=0.15
X357 VDDA a_n2130_3450# VD4 VDDA sky130_fd_pr__pfet_01v8 ad=0.7 pd=3.9 as=0.7 ps=3.9 w=3.5 l=0.2
X358 VOUT- cap_res_X sky130_fd_pr__cap_mim_m3_1 l=2 w=2
X359 a_5930_594# V_CMFB_S2 GNDA sky130_fd_pr__res_xhigh_po_0p35 l=1.75
X360 VOUT+ cap_res_Y sky130_fd_pr__cap_mim_m3_1 l=2 w=2
X361 VD1 Vb1 X GNDA sky130_fd_pr__nfet_01v8 ad=0.3 pd=1.9 as=0.3 ps=1.9 w=1.5 l=0.15
X362 VOUT- cap_res_X sky130_fd_pr__cap_mim_m3_1 l=2 w=2
X363 VOUT+ cap_res_Y sky130_fd_pr__cap_mim_m3_1 l=2 w=2
X364 VDDA Y VOUT+ VDDA sky130_fd_pr__pfet_01v8 ad=1.2 pd=6.4 as=1.2 ps=6.4 w=6 l=0.15
X365 VOUT- cap_res_X sky130_fd_pr__cap_mim_m3_1 l=2 w=2
X366 GNDA VDDA VDDA VDDA sky130_fd_pr__pfet_01v8 ad=0.4 pd=2.4 as=0.8 ps=4.8 w=2 l=0.15
X367 VDDA a_n2130_3450# VD3 VDDA sky130_fd_pr__pfet_01v8 ad=0.7 pd=3.9 as=0.7 ps=3.9 w=3.5 l=0.2
X368 VOUT+ cap_res_Y sky130_fd_pr__cap_mim_m3_1 l=2 w=2
X369 GNDA Y V_CMFB_S3 VDDA sky130_fd_pr__pfet_01v8 ad=0.4 pd=2.4 as=0.4 ps=2.4 w=2 l=0.15
X370 VD2 Vb1 Y GNDA sky130_fd_pr__nfet_01v8 ad=0.3 pd=1.9 as=0.3 ps=1.9 w=1.5 l=0.15
X371 VOUT- cap_res_X sky130_fd_pr__cap_mim_m3_1 l=2 w=2
X372 VOUT+ cap_res_Y sky130_fd_pr__cap_mim_m3_1 l=2 w=2
X373 V_CMFB_S1 X GNDA VDDA sky130_fd_pr__pfet_01v8 ad=0.4 pd=2.4 as=0.4 ps=2.4 w=2 l=0.15
X374 VOUT- X VDDA VDDA sky130_fd_pr__pfet_01v8 ad=1.2 pd=6.4 as=1.2 ps=6.4 w=6 l=0.15
X375 a_n2860_594# V_tot GNDA sky130_fd_pr__res_xhigh_po_0p35 l=1.75
X376 VOUT- cap_res_X sky130_fd_pr__cap_mim_m3_1 l=2 w=2
X377 VOUT- cap_res_X sky130_fd_pr__cap_mim_m3_1 l=2 w=2
X378 VOUT- cap_res_X sky130_fd_pr__cap_mim_m3_1 l=2 w=2
X379 VOUT+ cap_res_Y sky130_fd_pr__cap_mim_m3_1 l=2 w=2
X380 VDDA VDDA VOUT+ VDDA sky130_fd_pr__pfet_01v8 ad=2.4 pd=12.8 as=1.2 ps=6.4 w=6 l=0.15
X381 VOUT- cap_res_X sky130_fd_pr__cap_mim_m3_1 l=2 w=2
X382 cap_res_Y Y GNDA sky130_fd_pr__res_high_po_1p41 l=1.41
X383 X Vb1 VD1 GNDA sky130_fd_pr__nfet_01v8 ad=0.3 pd=1.9 as=0.3 ps=1.9 w=1.5 l=0.15
X384 VOUT+ cap_res_Y sky130_fd_pr__cap_mim_m3_1 l=2 w=2
X385 VOUT- cap_res_X sky130_fd_pr__cap_mim_m3_1 l=2 w=2
X386 VOUT- cap_res_X sky130_fd_pr__cap_mim_m3_1 l=2 w=2
X387 VOUT+ Y VDDA VDDA sky130_fd_pr__pfet_01v8 ad=1.2 pd=6.4 as=1.2 ps=6.4 w=6 l=0.15
X388 VOUT+ cap_res_Y sky130_fd_pr__cap_mim_m3_1 l=2 w=2
X389 VOUT+ cap_res_Y sky130_fd_pr__cap_mim_m3_1 l=2 w=2
X390 VDDA a_n2130_3450# VD3 VDDA sky130_fd_pr__pfet_01v8 ad=0.7 pd=3.9 as=0.7 ps=3.9 w=3.5 l=0.2
X391 VDDA V_err_gate V_err_mir_p VDDA sky130_fd_pr__pfet_01v8 ad=0.5 pd=2.9 as=0.5 ps=2.9 w=2.5 l=0.15
X392 V_err_p V_tot err_amp_mir VDDA sky130_fd_pr__pfet_01v8 ad=0.5 pd=2.9 as=0.5 ps=2.9 w=2.5 l=0.15
X393 VOUT+ cap_res_Y sky130_fd_pr__cap_mim_m3_1 l=2 w=2
X394 VOUT- cap_res_X sky130_fd_pr__cap_mim_m3_1 l=2 w=2
X395 VOUT- cap_res_X sky130_fd_pr__cap_mim_m3_1 l=2 w=2
X396 VOUT+ V_b_2nd_stage GNDA GNDA sky130_fd_pr__nfet_01v8 ad=1.4 pd=7.4 as=1.4 ps=7.4 w=7 l=0.6
X397 VOUT+ cap_res_Y sky130_fd_pr__cap_mim_m3_1 l=2 w=2
X398 VOUT+ cap_res_Y sky130_fd_pr__cap_mim_m3_1 l=2 w=2
X399 VD1 VIN- V_source GNDA sky130_fd_pr__nfet_01v8 ad=0.3 pd=1.9 as=0.3 ps=1.9 w=1.5 l=0.15
X400 VOUT- cap_res_X sky130_fd_pr__cap_mim_m3_1 l=2 w=2
X401 Vb2_Vb3 VDDA VDDA VDDA sky130_fd_pr__pfet_01v8 ad=0.7 pd=3.9 as=1.4 ps=7.8 w=3.5 l=0.2
X402 VOUT+ cap_res_Y sky130_fd_pr__cap_mim_m3_1 l=2 w=2
X403 VOUT+ cap_res_Y sky130_fd_pr__cap_mim_m3_1 l=2 w=2
X404 VOUT- cap_res_X sky130_fd_pr__cap_mim_m3_1 l=2 w=2
X405 VOUT+ cap_res_Y sky130_fd_pr__cap_mim_m3_1 l=2 w=2
X406 VOUT+ cap_res_Y sky130_fd_pr__cap_mim_m3_1 l=2 w=2
X407 VOUT+ cap_res_Y sky130_fd_pr__cap_mim_m3_1 l=2 w=2
X408 GNDA GNDA VD2 GNDA sky130_fd_pr__nfet_01v8 ad=0.6 pd=3.8 as=0.3 ps=1.9 w=1.5 l=0.15
X409 VOUT- cap_res_X sky130_fd_pr__cap_mim_m3_1 l=2 w=2
X410 Vb2_Vb3 Vb2_Vb3 a_n2130_3450# Vb2_Vb3 sky130_fd_pr__pfet_01v8 ad=1.4 pd=7.8 as=0.7 ps=3.9 w=3.5 l=0.2