* PEX produced on Wed Jul 16 10:20:33 AM CEST 2025 using /foss/tools/osic-multitool/iic-pex.sh with m=3 and s=1
* NGSPICE file created from two_stage_opamp_dummy_magic_17.ext - technology: sky130A

.subckt two_stage_opamp_dummy_magic_17 VDDA V_CMFB_S1 V_CMFB_S3 Vb3 Vb2 Vb1 V_CMFB_S2
+ V_CMFB_S4 VOUT- VOUT+ V_tail_gate V_err_amp_ref V_err_gate VIN+ VIN- GNDA
X0 VOUT-.t19 cap_res_X.t138 sky130_fd_pr__cap_mim_m3_1 l=2 w=2
X1 VDDA.t103 Y.t25 V_CMFB_S4.t3 GNDA.t95 sky130_fd_pr__nfet_01v8 ad=0.6 pd=3.4 as=0.6 ps=3.4 w=3 l=0.15
X2 X.t21 Vb1.t10 VD1.t18 GNDA.t5 sky130_fd_pr__nfet_01v8 ad=0.3 pd=1.9 as=0.3 ps=1.9 w=1.5 l=0.15
X3 V_err_p.t3 V_err_gate.t4 VDDA.t11 VDDA.t10 sky130_fd_pr__pfet_01v8 ad=0.5 pd=2.9 as=0.5 ps=2.9 w=2.5 l=0.15
X4 VOUT-.t20 cap_res_X.t137 sky130_fd_pr__cap_mim_m3_1 l=2 w=2
X5 a_5930_594.t1 V_tot.t3 GNDA.t203 sky130_fd_pr__res_xhigh_po_0p35 l=1.75
X6 VOUT+.t19 cap_res_Y.t138 sky130_fd_pr__cap_mim_m3_1 l=2 w=2
X7 V_CMFB_S3.t9 Y.t26 GNDA.t93 VDDA.t102 sky130_fd_pr__pfet_01v8 ad=0.4 pd=2.4 as=0.4 ps=2.4 w=2 l=0.15
X8 VOUT+.t20 cap_res_Y.t137 sky130_fd_pr__cap_mim_m3_1 l=2 w=2
X9 VD4.t28 VD4.t26 Y.t22 VD4.t27 sky130_fd_pr__pfet_01v8 ad=1.4 pd=7.8 as=0.7 ps=3.9 w=3.5 l=0.2
X10 VOUT-.t21 cap_res_X.t136 sky130_fd_pr__cap_mim_m3_1 l=2 w=2
X11 VOUT+.t21 cap_res_Y.t136 sky130_fd_pr__cap_mim_m3_1 l=2 w=2
X12 GNDA.t99 VDDA.t162 VDDA.t164 VDDA.t163 sky130_fd_pr__pfet_01v8 ad=0.4 pd=2.4 as=0.8 ps=4.8 w=2 l=0.15
X13 VOUT+.t22 cap_res_Y.t135 sky130_fd_pr__cap_mim_m3_1 l=2 w=2
X14 VOUT-.t22 cap_res_X.t135 sky130_fd_pr__cap_mim_m3_1 l=2 w=2
X15 VDDA.t44 Vb3.t2 VD3.t27 VDDA.t43 sky130_fd_pr__pfet_01v8 ad=0.7 pd=3.9 as=0.7 ps=3.9 w=3.5 l=0.2
X16 V_source.t32 VIN+.t0 VD2.t0 GNDA.t4 sky130_fd_pr__nfet_01v8 ad=0.3 pd=1.9 as=0.3 ps=1.9 w=1.5 l=0.15
X17 VOUT+.t23 cap_res_Y.t134 sky130_fd_pr__cap_mim_m3_1 l=2 w=2
X18 X.t4 Vb2.t3 VD3.t7 VD3.t6 sky130_fd_pr__pfet_01v8 ad=0.7 pd=3.9 as=0.7 ps=3.9 w=3.5 l=0.2
X19 V_CMFB_S1.t10 X.t25 GNDA.t172 VDDA.t170 sky130_fd_pr__pfet_01v8 ad=0.4 pd=2.4 as=0.4 ps=2.4 w=2 l=0.15
X20 VDDA.t169 X.t26 V_CMFB_S2.t10 GNDA.t171 sky130_fd_pr__nfet_01v8 ad=0.6 pd=3.4 as=0.6 ps=3.4 w=3 l=0.15
X21 V_CMFB_S3.t8 Y.t27 GNDA.t94 VDDA.t101 sky130_fd_pr__pfet_01v8 ad=0.4 pd=2.4 as=0.4 ps=2.4 w=2 l=0.15
X22 VOUT-.t23 cap_res_X.t134 sky130_fd_pr__cap_mim_m3_1 l=2 w=2
X23 VOUT-.t2 VDDA.t159 VDDA.t161 VDDA.t160 sky130_fd_pr__pfet_01v8 ad=1.2 pd=6.4 as=2.4 ps=12.8 w=6 l=0.15
X24 VDDA.t33 Vb3.t3 VD4.t13 VDDA.t32 sky130_fd_pr__pfet_01v8 ad=0.7 pd=3.9 as=0.7 ps=3.9 w=3.5 l=0.2
X25 VOUT-.t24 cap_res_X.t133 sky130_fd_pr__cap_mim_m3_1 l=2 w=2
X26 V_p_mir.t5 V_tail_gate.t4 GNDA.t70 GNDA.t48 sky130_fd_pr__nfet_01v8 ad=0.5 pd=2.9 as=0.5 ps=2.9 w=2.5 l=0.15
X27 VOUT+.t24 cap_res_Y.t133 sky130_fd_pr__cap_mim_m3_1 l=2 w=2
X28 VOUT-.t25 cap_res_X.t132 sky130_fd_pr__cap_mim_m3_1 l=2 w=2
X29 VOUT-.t26 cap_res_X.t131 sky130_fd_pr__cap_mim_m3_1 l=2 w=2
X30 VDDA.t158 VDDA.t155 VDDA.t157 VDDA.t156 sky130_fd_pr__pfet_01v8 ad=0.72 pd=4.4 as=0 ps=0 w=1.8 l=0.2
X31 VDDA.t154 VDDA.t152 VD3.t17 VDDA.t153 sky130_fd_pr__pfet_01v8 ad=1.4 pd=7.8 as=0.7 ps=3.9 w=3.5 l=0.2
X32 VOUT+.t25 cap_res_Y.t132 sky130_fd_pr__cap_mim_m3_1 l=2 w=2
X33 VOUT+.t26 cap_res_Y.t131 sky130_fd_pr__cap_mim_m3_1 l=2 w=2
X34 X.t1 Vb2.t4 VD3.t3 VD3.t2 sky130_fd_pr__pfet_01v8 ad=0.7 pd=3.9 as=0.7 ps=3.9 w=3.5 l=0.2
X35 VDDA.t100 Y.t28 V_CMFB_S4.t8 GNDA.t92 sky130_fd_pr__nfet_01v8 ad=0.6 pd=3.4 as=0.6 ps=3.4 w=3 l=0.15
X36 VDDA.t42 GNDA.t165 GNDA.t167 GNDA.t166 sky130_fd_pr__nfet_01v8 ad=0.6 pd=3.4 as=1.2 ps=6.8 w=3 l=0.15
X37 V_tail_gate.t2 GNDA.t163 GNDA.t164 GNDA.t40 sky130_fd_pr__nfet_01v8 ad=0.3 pd=1.9 as=0.6 ps=3.8 w=1.5 l=0.15
X38 VOUT-.t27 cap_res_X.t130 sky130_fd_pr__cap_mim_m3_1 l=2 w=2
X39 VOUT-.t28 cap_res_X.t129 sky130_fd_pr__cap_mim_m3_1 l=2 w=2
X40 VOUT+.t27 cap_res_Y.t130 sky130_fd_pr__cap_mim_m3_1 l=2 w=2
X41 VDDA.t151 VDDA.t149 VDDA.t151 VDDA.t150 sky130_fd_pr__pfet_01v8 ad=0.7 pd=3.9 as=0 ps=0 w=3.5 l=0.2
X42 Y.t18 Vb1.t11 VD2.t21 GNDA.t16 sky130_fd_pr__nfet_01v8 ad=0.3 pd=1.9 as=0.3 ps=1.9 w=1.5 l=0.15
X43 VOUT+.t28 cap_res_Y.t129 sky130_fd_pr__cap_mim_m3_1 l=2 w=2
X44 VD1.t21 VIN-.t0 V_source.t36 GNDA.t61 sky130_fd_pr__nfet_01v8 ad=0.3 pd=1.9 as=0.3 ps=1.9 w=1.5 l=0.15
X45 VOUT-.t29 cap_res_X.t128 sky130_fd_pr__cap_mim_m3_1 l=2 w=2
X46 VDDA.t13 Vb3.t4 VD4.t5 VDDA.t12 sky130_fd_pr__pfet_01v8 ad=0.7 pd=3.9 as=0.7 ps=3.9 w=3.5 l=0.2
X47 VOUT+.t29 cap_res_Y.t128 sky130_fd_pr__cap_mim_m3_1 l=2 w=2
X48 VOUT-.t30 cap_res_X.t127 sky130_fd_pr__cap_mim_m3_1 l=2 w=2
X49 VOUT-.t31 cap_res_X.t126 sky130_fd_pr__cap_mim_m3_1 l=2 w=2
X50 VOUT-.t32 cap_res_X.t125 sky130_fd_pr__cap_mim_m3_1 l=2 w=2
X51 VOUT+.t30 cap_res_Y.t127 sky130_fd_pr__cap_mim_m3_1 l=2 w=2
X52 GNDA.t162 GNDA.t161 VD1.t9 GNDA.t142 sky130_fd_pr__nfet_01v8 ad=0.6 pd=3.8 as=0.3 ps=1.9 w=1.5 l=0.15
X53 VOUT-.t33 cap_res_X.t124 sky130_fd_pr__cap_mim_m3_1 l=2 w=2
X54 VOUT+.t31 cap_res_Y.t126 sky130_fd_pr__cap_mim_m3_1 l=2 w=2
X55 V_err_gate.t3 VDDA.t146 VDDA.t148 VDDA.t147 sky130_fd_pr__pfet_01v8 ad=0.5 pd=2.9 as=1 ps=5.8 w=2.5 l=0.15
X56 Y.t13 Vb2.t5 VD4.t19 VD4.t18 sky130_fd_pr__pfet_01v8 ad=0.7 pd=3.9 as=0.7 ps=3.9 w=3.5 l=0.2
X57 VOUT-.t34 cap_res_X.t123 sky130_fd_pr__cap_mim_m3_1 l=2 w=2
X58 VOUT+.t2 a_n2580_n2210.t0 GNDA.t75 sky130_fd_pr__res_xhigh_po_0p35 l=2.63
X59 VOUT-.t35 cap_res_X.t122 sky130_fd_pr__cap_mim_m3_1 l=2 w=2
X60 VDDA.t145 VDDA.t143 V_err_gate.t2 VDDA.t144 sky130_fd_pr__pfet_01v8 ad=1 pd=5.8 as=0.5 ps=2.9 w=2.5 l=0.15
X61 VOUT+.t32 cap_res_Y.t125 sky130_fd_pr__cap_mim_m3_1 l=2 w=2
X62 VD3.t9 Vb2.t6 X.t5 VD3.t8 sky130_fd_pr__pfet_01v8 ad=0.7 pd=3.9 as=0.7 ps=3.9 w=3.5 l=0.2
X63 VOUT-.t36 cap_res_X.t121 sky130_fd_pr__cap_mim_m3_1 l=2 w=2
X64 VOUT+.t33 cap_res_Y.t124 sky130_fd_pr__cap_mim_m3_1 l=2 w=2
X65 VOUT-.t37 cap_res_X.t120 sky130_fd_pr__cap_mim_m3_1 l=2 w=2
X66 VD1.t20 VIN-.t1 V_source.t35 GNDA.t168 sky130_fd_pr__nfet_01v8 ad=0.3 pd=1.9 as=0.3 ps=1.9 w=1.5 l=0.15
X67 VOUT+.t34 cap_res_Y.t123 sky130_fd_pr__cap_mim_m3_1 l=2 w=2
X68 VDDA.t168 X.t27 V_CMFB_S2.t9 GNDA.t170 sky130_fd_pr__nfet_01v8 ad=0.6 pd=3.4 as=0.6 ps=3.4 w=3 l=0.15
X69 VDDA.t142 VDDA.t140 Vb2_2.t3 VDDA.t141 sky130_fd_pr__pfet_01v8 ad=0.72 pd=4.4 as=0.36 ps=2.2 w=1.8 l=0.2
X70 Y.t16 GNDA.t159 GNDA.t160 GNDA.t120 sky130_fd_pr__nfet_01v8 ad=0.3 pd=1.9 as=0.6 ps=3.8 w=1.5 l=0.15
X71 VOUT-.t38 cap_res_X.t119 sky130_fd_pr__cap_mim_m3_1 l=2 w=2
X72 VOUT+.t35 cap_res_Y.t122 sky130_fd_pr__cap_mim_m3_1 l=2 w=2
X73 V_source.t31 VIN+.t1 VD2.t7 GNDA.t178 sky130_fd_pr__nfet_01v8 ad=0.3 pd=1.9 as=0.3 ps=1.9 w=1.5 l=0.15
X74 VOUT-.t39 cap_res_X.t118 sky130_fd_pr__cap_mim_m3_1 l=2 w=2
X75 V_p_mir.t2 GNDA.t157 GNDA.t158 GNDA.t40 sky130_fd_pr__nfet_01v8 ad=0.5 pd=2.9 as=1 ps=5.8 w=2.5 l=0.15
X76 VD4.t2 Vb3.t5 VDDA.t9 VDDA.t8 sky130_fd_pr__pfet_01v8 ad=0.7 pd=3.9 as=0.7 ps=3.9 w=3.5 l=0.2
X77 VOUT-.t40 cap_res_X.t117 sky130_fd_pr__cap_mim_m3_1 l=2 w=2
X78 V_CMFB_S1.t9 X.t28 GNDA.t0 VDDA.t0 sky130_fd_pr__pfet_01v8 ad=0.4 pd=2.4 as=0.4 ps=2.4 w=2 l=0.15
X79 VOUT-.t41 cap_res_X.t116 sky130_fd_pr__cap_mim_m3_1 l=2 w=2
X80 X.t20 Vb1.t12 VD1.t19 GNDA.t61 sky130_fd_pr__nfet_01v8 ad=0.3 pd=1.9 as=0.3 ps=1.9 w=1.5 l=0.15
X81 V_CMFB_S3.t7 Y.t29 GNDA.t91 VDDA.t99 sky130_fd_pr__pfet_01v8 ad=0.4 pd=2.4 as=0.4 ps=2.4 w=2 l=0.15
X82 VOUT+.t36 cap_res_Y.t121 sky130_fd_pr__cap_mim_m3_1 l=2 w=2
X83 VOUT-.t16 V_b_2nd_stage.t2 GNDA.t200 GNDA.t199 sky130_fd_pr__nfet_01v8 ad=1.4 pd=7.4 as=1.4 ps=7.4 w=7 l=0.6
X84 VOUT-.t42 cap_res_X.t115 sky130_fd_pr__cap_mim_m3_1 l=2 w=2
X85 GNDA.t169 X.t29 V_CMFB_S1.t8 VDDA.t167 sky130_fd_pr__pfet_01v8 ad=0.4 pd=2.4 as=0.4 ps=2.4 w=2 l=0.15
X86 VOUT+.t37 cap_res_Y.t120 sky130_fd_pr__cap_mim_m3_1 l=2 w=2
X87 VOUT+.t38 cap_res_Y.t119 sky130_fd_pr__cap_mim_m3_1 l=2 w=2
X88 GNDA.t11 V_tail_gate.t5 V_source.t1 GNDA.t10 sky130_fd_pr__nfet_01v8 ad=0.5 pd=2.9 as=0.5 ps=2.9 w=2.5 l=0.15
X89 VOUT-.t43 cap_res_X.t114 sky130_fd_pr__cap_mim_m3_1 l=2 w=2
X90 VOUT-.t44 cap_res_X.t113 sky130_fd_pr__cap_mim_m3_1 l=2 w=2
X91 Y.t4 Vb1.t13 VD2.t20 GNDA.t17 sky130_fd_pr__nfet_01v8 ad=0.3 pd=1.9 as=0.3 ps=1.9 w=1.5 l=0.15
X92 VOUT+.t39 cap_res_Y.t118 sky130_fd_pr__cap_mim_m3_1 l=2 w=2
X93 VDDA.t139 VDDA.t137 VOUT-.t15 VDDA.t138 sky130_fd_pr__pfet_01v8 ad=2.4 pd=12.8 as=1.2 ps=6.4 w=6 l=0.15
X94 VD3.t26 Vb3.t6 VDDA.t17 VDDA.t16 sky130_fd_pr__pfet_01v8 ad=0.7 pd=3.9 as=0.7 ps=3.9 w=3.5 l=0.2
X95 VOUT+.t40 cap_res_Y.t117 sky130_fd_pr__cap_mim_m3_1 l=2 w=2
X96 VD3.t5 Vb2.t7 X.t3 VD3.t4 sky130_fd_pr__pfet_01v8 ad=0.7 pd=3.9 as=0.7 ps=3.9 w=3.5 l=0.2
X97 VDDA.t136 VDDA.t134 GNDA.t98 VDDA.t135 sky130_fd_pr__pfet_01v8 ad=0.8 pd=4.8 as=0.4 ps=2.4 w=2 l=0.15
X98 VOUT+.t41 cap_res_Y.t116 sky130_fd_pr__cap_mim_m3_1 l=2 w=2
X99 GNDA.t20 V_tail_gate.t6 V_source.t5 GNDA.t19 sky130_fd_pr__nfet_01v8 ad=0.5 pd=2.9 as=0.5 ps=2.9 w=2.5 l=0.15
X100 VOUT-.t45 cap_res_X.t112 sky130_fd_pr__cap_mim_m3_1 l=2 w=2
X101 GNDA.t24 V_tail_gate.t7 V_source.t7 GNDA.t23 sky130_fd_pr__nfet_01v8 ad=0.5 pd=2.9 as=0.5 ps=2.9 w=2.5 l=0.15
X102 VD1.t8 GNDA.t155 GNDA.t156 GNDA.t150 sky130_fd_pr__nfet_01v8 ad=0.3 pd=1.9 as=0.6 ps=3.8 w=1.5 l=0.15
X103 VDDA.t98 Y.t30 VOUT+.t12 VDDA.t97 sky130_fd_pr__pfet_01v8 ad=1.2 pd=6.4 as=1.2 ps=6.4 w=6 l=0.15
X104 VOUT+.t42 cap_res_Y.t115 sky130_fd_pr__cap_mim_m3_1 l=2 w=2
X105 VOUT+.t43 cap_res_Y.t114 sky130_fd_pr__cap_mim_m3_1 l=2 w=2
X106 VOUT-.t46 cap_res_X.t111 sky130_fd_pr__cap_mim_m3_1 l=2 w=2
X107 V_err_mir_p.t2 V_err_gate.t5 VDDA.t31 VDDA.t30 sky130_fd_pr__pfet_01v8 ad=0.5 pd=2.9 as=0.5 ps=2.9 w=2.5 l=0.15
X108 VOUT+.t44 cap_res_Y.t113 sky130_fd_pr__cap_mim_m3_1 l=2 w=2
X109 GNDA.t57 V_b_2nd_stage.t3 VOUT+.t1 GNDA.t56 sky130_fd_pr__nfet_01v8 ad=1.4 pd=7.4 as=1.4 ps=7.4 w=7 l=0.6
X110 V_source.t6 VIN-.t2 VD1.t3 GNDA.t21 sky130_fd_pr__nfet_01v8 ad=0.3 pd=1.9 as=0.3 ps=1.9 w=1.5 l=0.15
X111 VD4.t8 Vb3.t7 VDDA.t20 VDDA.t19 sky130_fd_pr__pfet_01v8 ad=0.7 pd=3.9 as=0.7 ps=3.9 w=3.5 l=0.2
X112 VDDA.t194 GNDA.t152 GNDA.t154 GNDA.t153 sky130_fd_pr__nfet_01v8 ad=0.6 pd=3.4 as=1.2 ps=6.8 w=3 l=0.15
X113 VOUT-.t47 cap_res_X.t110 sky130_fd_pr__cap_mim_m3_1 l=2 w=2
X114 VOUT-.t48 cap_res_X.t109 sky130_fd_pr__cap_mim_m3_1 l=2 w=2
X115 VOUT+.t45 cap_res_Y.t112 sky130_fd_pr__cap_mim_m3_1 l=2 w=2
X116 VD3.t37 VD3.t35 X.t24 VD3.t36 sky130_fd_pr__pfet_01v8 ad=1.4 pd=7.8 as=0.7 ps=3.9 w=3.5 l=0.2
X117 VOUT-.t49 cap_res_X.t108 sky130_fd_pr__cap_mim_m3_1 l=2 w=2
X118 VOUT-.t50 cap_res_X.t107 sky130_fd_pr__cap_mim_m3_1 l=2 w=2
X119 VOUT-.t51 cap_res_X.t106 sky130_fd_pr__cap_mim_m3_1 l=2 w=2
X120 VOUT+.t46 cap_res_Y.t111 sky130_fd_pr__cap_mim_m3_1 l=2 w=2
X121 VOUT+.t47 cap_res_Y.t110 sky130_fd_pr__cap_mim_m3_1 l=2 w=2
X122 VD1.t5 VIN-.t3 V_source.t11 GNDA.t36 sky130_fd_pr__nfet_01v8 ad=0.3 pd=1.9 as=0.3 ps=1.9 w=1.5 l=0.15
X123 X.t11 GNDA.t149 GNDA.t151 GNDA.t150 sky130_fd_pr__nfet_01v8 ad=0.3 pd=1.9 as=0.6 ps=3.8 w=1.5 l=0.15
X124 VOUT-.t52 cap_res_X.t105 sky130_fd_pr__cap_mim_m3_1 l=2 w=2
X125 VOUT+.t11 Y.t31 VDDA.t96 VDDA.t95 sky130_fd_pr__pfet_01v8 ad=1.2 pd=6.4 as=1.2 ps=6.4 w=6 l=0.15
X126 V_b_2nd_stage.t0 a_5770_n2210.t0 GNDA.t31 sky130_fd_pr__res_xhigh_po_0p35 l=2.63
X127 VD4.t30 VDDA.t131 VDDA.t133 VDDA.t132 sky130_fd_pr__pfet_01v8 ad=0.7 pd=3.9 as=1.4 ps=7.8 w=3.5 l=0.2
X128 VOUT-.t53 cap_res_X.t104 sky130_fd_pr__cap_mim_m3_1 l=2 w=2
X129 VOUT-.t54 cap_res_X.t103 sky130_fd_pr__cap_mim_m3_1 l=2 w=2
X130 Vb1_2.t4 Vb1.t8 Vb1.t9 GNDA.t46 sky130_fd_pr__nfet_01v8 ad=0.3 pd=1.9 as=0.3 ps=1.9 w=1.5 l=0.15
X131 VD2.t3 VIN+.t2 V_source.t30 GNDA.t16 sky130_fd_pr__nfet_01v8 ad=0.3 pd=1.9 as=0.3 ps=1.9 w=1.5 l=0.15
X132 Y.t2 Vb1.t14 VD2.t19 GNDA.t6 sky130_fd_pr__nfet_01v8 ad=0.3 pd=1.9 as=0.3 ps=1.9 w=1.5 l=0.15
X133 VOUT-.t55 cap_res_X.t102 sky130_fd_pr__cap_mim_m3_1 l=2 w=2
X134 GNDA.t148 GNDA.t147 Vb1.t1 GNDA.t1 sky130_fd_pr__nfet_01v8 ad=0.6 pd=3.8 as=0.3 ps=1.9 w=1.5 l=0.15
X135 VOUT-.t56 cap_res_X.t101 sky130_fd_pr__cap_mim_m3_1 l=2 w=2
X136 VOUT+.t48 cap_res_Y.t109 sky130_fd_pr__cap_mim_m3_1 l=2 w=2
X137 VOUT+.t49 cap_res_Y.t108 sky130_fd_pr__cap_mim_m3_1 l=2 w=2
X138 VDDA.t166 X.t30 VOUT-.t5 VDDA.t165 sky130_fd_pr__pfet_01v8 ad=1.2 pd=6.4 as=1.2 ps=6.4 w=6 l=0.15
X139 V_source.t34 Vb1.t15 Vb1_2.t0 GNDA.t22 sky130_fd_pr__nfet_01v8 ad=0.6 pd=3.8 as=0.6 ps=3.8 w=1.5 l=3
X140 VOUT-.t57 cap_res_X.t100 sky130_fd_pr__cap_mim_m3_1 l=2 w=2
X141 VD4.t7 Vb2.t8 Y.t7 VD4.t6 sky130_fd_pr__pfet_01v8 ad=0.7 pd=3.9 as=0.7 ps=3.9 w=3.5 l=0.2
X142 VOUT+.t50 cap_res_Y.t107 sky130_fd_pr__cap_mim_m3_1 l=2 w=2
X143 GNDA.t173 X.t31 V_CMFB_S1.t7 VDDA.t171 sky130_fd_pr__pfet_01v8 ad=0.4 pd=2.4 as=0.4 ps=2.4 w=2 l=0.15
X144 VD1.t16 Vb1.t16 X.t19 GNDA.t52 sky130_fd_pr__nfet_01v8 ad=0.3 pd=1.9 as=0.3 ps=1.9 w=1.5 l=0.15
X145 VDDA.t94 Y.t32 VOUT+.t10 VDDA.t93 sky130_fd_pr__pfet_01v8 ad=1.2 pd=6.4 as=1.2 ps=6.4 w=6 l=0.15
X146 VOUT+.t51 cap_res_Y.t106 sky130_fd_pr__cap_mim_m3_1 l=2 w=2
X147 VOUT-.t58 cap_res_X.t99 sky130_fd_pr__cap_mim_m3_1 l=2 w=2
X148 V_err_mir_p.t0 V_err_amp_ref.t0 V_err_gate.t0 VDDA.t3 sky130_fd_pr__pfet_01v8 ad=0.5 pd=2.9 as=0.5 ps=2.9 w=2.5 l=0.15
X149 err_amp_mir.t3 VDDA.t128 VDDA.t130 VDDA.t129 sky130_fd_pr__pfet_01v8 ad=0.5 pd=2.9 as=1 ps=5.8 w=2.5 l=0.15
X150 VOUT-.t59 cap_res_X.t98 sky130_fd_pr__cap_mim_m3_1 l=2 w=2
X151 VOUT-.t60 cap_res_X.t97 sky130_fd_pr__cap_mim_m3_1 l=2 w=2
X152 VOUT-.t61 cap_res_X.t96 sky130_fd_pr__cap_mim_m3_1 l=2 w=2
X153 VOUT+.t52 cap_res_Y.t105 sky130_fd_pr__cap_mim_m3_1 l=2 w=2
X154 VOUT-.t62 cap_res_X.t95 sky130_fd_pr__cap_mim_m3_1 l=2 w=2
X155 VOUT-.t63 cap_res_X.t94 sky130_fd_pr__cap_mim_m3_1 l=2 w=2
X156 GNDA.t13 V_tail_gate.t8 V_source.t2 GNDA.t12 sky130_fd_pr__nfet_01v8 ad=0.5 pd=2.9 as=0.5 ps=2.9 w=2.5 l=0.15
X157 V_source.t40 V_tail_gate.t9 GNDA.t194 GNDA.t110 sky130_fd_pr__nfet_01v8 ad=0.5 pd=2.9 as=0.5 ps=2.9 w=2.5 l=0.15
X158 GNDA.t41 V_tail_gate.t10 V_source.t14 GNDA.t40 sky130_fd_pr__nfet_01v8 ad=0.5 pd=2.9 as=0.5 ps=2.9 w=2.5 l=0.15
X159 VOUT+.t53 cap_res_Y.t104 sky130_fd_pr__cap_mim_m3_1 l=2 w=2
X160 VOUT+.t54 cap_res_Y.t103 sky130_fd_pr__cap_mim_m3_1 l=2 w=2
X161 V_source.t9 VIN-.t4 VD1.t4 GNDA.t28 sky130_fd_pr__nfet_01v8 ad=0.3 pd=1.9 as=0.3 ps=1.9 w=1.5 l=0.15
X162 VOUT+.t55 cap_res_Y.t102 sky130_fd_pr__cap_mim_m3_1 l=2 w=2
X163 VOUT-.t64 cap_res_X.t93 sky130_fd_pr__cap_mim_m3_1 l=2 w=2
X164 VOUT-.t65 cap_res_X.t92 sky130_fd_pr__cap_mim_m3_1 l=2 w=2
X165 VOUT-.t66 cap_res_X.t91 sky130_fd_pr__cap_mim_m3_1 l=2 w=2
X166 VD4.t37 Vb2.t9 Y.t24 VD4.t36 sky130_fd_pr__pfet_01v8 ad=0.7 pd=3.9 as=0.7 ps=3.9 w=3.5 l=0.2
X167 VOUT+.t56 cap_res_Y.t101 sky130_fd_pr__cap_mim_m3_1 l=2 w=2
X168 VOUT+.t57 cap_res_Y.t100 sky130_fd_pr__cap_mim_m3_1 l=2 w=2
X169 Y.t14 Vb1.t17 VD2.t18 GNDA.t59 sky130_fd_pr__nfet_01v8 ad=0.3 pd=1.9 as=0.3 ps=1.9 w=1.5 l=0.15
X170 VOUT-.t67 cap_res_X.t90 sky130_fd_pr__cap_mim_m3_1 l=2 w=2
X171 GNDA.t192 V_b_2nd_stage.t4 VOUT-.t14 GNDA.t191 sky130_fd_pr__nfet_01v8 ad=1.4 pd=7.4 as=1.4 ps=7.4 w=7 l=0.6
X172 GNDA.t146 GNDA.t144 VDDA.t36 GNDA.t145 sky130_fd_pr__nfet_01v8 ad=1.2 pd=6.8 as=0.6 ps=3.4 w=3 l=0.15
X173 Y.t17 Vb1.t18 VD2.t17 GNDA.t37 sky130_fd_pr__nfet_01v8 ad=0.3 pd=1.9 as=0.3 ps=1.9 w=1.5 l=0.15
X174 VDDA.t181 X.t32 VOUT-.t8 VDDA.t180 sky130_fd_pr__pfet_01v8 ad=1.2 pd=6.4 as=1.2 ps=6.4 w=6 l=0.15
X175 a_n2980_594.t1 V_CMFB_S4.t0 GNDA.t71 sky130_fd_pr__res_xhigh_po_0p35 l=1.75
X176 VOUT+.t58 cap_res_Y.t99 sky130_fd_pr__cap_mim_m3_1 l=2 w=2
X177 VDDA.t179 X.t33 VOUT-.t7 VDDA.t178 sky130_fd_pr__pfet_01v8 ad=1.2 pd=6.4 as=1.2 ps=6.4 w=6 l=0.15
X178 VOUT-.t68 cap_res_X.t89 sky130_fd_pr__cap_mim_m3_1 l=2 w=2
X179 X.t6 Vb2.t10 VD3.t11 VD3.t10 sky130_fd_pr__pfet_01v8 ad=0.7 pd=3.9 as=0.7 ps=3.9 w=3.5 l=0.2
X180 VOUT+.t59 cap_res_Y.t98 sky130_fd_pr__cap_mim_m3_1 l=2 w=2
X181 VOUT+.t60 cap_res_Y.t97 sky130_fd_pr__cap_mim_m3_1 l=2 w=2
X182 VOUT-.t69 cap_res_X.t88 sky130_fd_pr__cap_mim_m3_1 l=2 w=2
X183 VOUT+.t61 cap_res_Y.t96 sky130_fd_pr__cap_mim_m3_1 l=2 w=2
X184 VD1.t13 Vb1.t19 X.t18 GNDA.t14 sky130_fd_pr__nfet_01v8 ad=0.3 pd=1.9 as=0.3 ps=1.9 w=1.5 l=0.15
X185 VD2.t8 VIN+.t3 V_source.t29 GNDA.t17 sky130_fd_pr__nfet_01v8 ad=0.3 pd=1.9 as=0.3 ps=1.9 w=1.5 l=0.15
X186 V_CMFB_S4.t1 Y.t33 VDDA.t92 GNDA.t90 sky130_fd_pr__nfet_01v8 ad=0.6 pd=3.4 as=0.6 ps=3.4 w=3 l=0.15
X187 GNDA.t143 GNDA.t141 X.t10 GNDA.t142 sky130_fd_pr__nfet_01v8 ad=0.6 pd=3.8 as=0.3 ps=1.9 w=1.5 l=0.15
X188 VOUT-.t70 cap_res_X.t87 sky130_fd_pr__cap_mim_m3_1 l=2 w=2
X189 VOUT-.t71 cap_res_X.t86 sky130_fd_pr__cap_mim_m3_1 l=2 w=2
X190 VDDA.t29 Vb3.t8 VD4.t12 VDDA.t28 sky130_fd_pr__pfet_01v8 ad=0.7 pd=3.9 as=0.7 ps=3.9 w=3.5 l=0.2
X191 VDDA.t91 Y.t34 VOUT+.t9 VDDA.t90 sky130_fd_pr__pfet_01v8 ad=1.2 pd=6.4 as=1.2 ps=6.4 w=6 l=0.15
X192 VOUT-.t72 cap_res_X.t85 sky130_fd_pr__cap_mim_m3_1 l=2 w=2
X193 VOUT+.t62 cap_res_Y.t95 sky130_fd_pr__cap_mim_m3_1 l=2 w=2
X194 VOUT-.t73 cap_res_X.t84 sky130_fd_pr__cap_mim_m3_1 l=2 w=2
X195 GNDA.t177 X.t34 V_CMFB_S1.t6 VDDA.t177 sky130_fd_pr__pfet_01v8 ad=0.4 pd=2.4 as=0.4 ps=2.4 w=2 l=0.15
X196 VOUT-.t74 cap_res_X.t83 sky130_fd_pr__cap_mim_m3_1 l=2 w=2
X197 GNDA.t78 Y.t35 V_CMFB_S3.t6 VDDA.t89 sky130_fd_pr__pfet_01v8 ad=0.4 pd=2.4 as=0.4 ps=2.4 w=2 l=0.15
X198 VOUT-.t75 cap_res_X.t82 sky130_fd_pr__cap_mim_m3_1 l=2 w=2
X199 VOUT+.t63 cap_res_Y.t94 sky130_fd_pr__cap_mim_m3_1 l=2 w=2
X200 Vb2_Vb3.t8 Vb2_Vb3.t5 Vb2_Vb3.t7 Vb2_Vb3.t6 sky130_fd_pr__pfet_01v8 ad=1.4 pd=7.8 as=0 ps=0 w=3.5 l=0.2
X201 VOUT+.t64 cap_res_Y.t93 sky130_fd_pr__cap_mim_m3_1 l=2 w=2
X202 VOUT+.t17 V_b_2nd_stage.t5 GNDA.t196 GNDA.t195 sky130_fd_pr__nfet_01v8 ad=1.4 pd=7.4 as=1.4 ps=7.4 w=7 l=0.6
X203 VOUT+.t65 cap_res_Y.t92 sky130_fd_pr__cap_mim_m3_1 l=2 w=2
X204 err_amp_out.t0 err_amp_mir.t5 GNDA.t69 GNDA.t48 sky130_fd_pr__nfet_01v8 ad=0.5 pd=2.9 as=0.5 ps=2.9 w=2.5 l=0.15
X205 VOUT-.t76 cap_res_X.t81 sky130_fd_pr__cap_mim_m3_1 l=2 w=2
X206 VOUT+.t66 cap_res_Y.t91 sky130_fd_pr__cap_mim_m3_1 l=2 w=2
X207 VOUT-.t77 cap_res_X.t80 sky130_fd_pr__cap_mim_m3_1 l=2 w=2
X208 VDDA.t88 Y.t36 V_CMFB_S4.t5 GNDA.t89 sky130_fd_pr__nfet_01v8 ad=0.6 pd=3.4 as=0.6 ps=3.4 w=3 l=0.15
X209 GNDA.t140 GNDA.t139 V_tail_gate.t1 GNDA.t110 sky130_fd_pr__nfet_01v8 ad=0.6 pd=3.8 as=0.3 ps=1.9 w=1.5 l=0.15
X210 VOUT+.t67 cap_res_Y.t90 sky130_fd_pr__cap_mim_m3_1 l=2 w=2
X211 VOUT-.t78 cap_res_X.t79 sky130_fd_pr__cap_mim_m3_1 l=2 w=2
X212 VOUT-.t79 cap_res_X.t78 sky130_fd_pr__cap_mim_m3_1 l=2 w=2
X213 VOUT+.t68 cap_res_Y.t89 sky130_fd_pr__cap_mim_m3_1 l=2 w=2
X214 V_CMFB_S2.t8 X.t35 VDDA.t176 GNDA.t176 sky130_fd_pr__nfet_01v8 ad=0.6 pd=3.4 as=0.6 ps=3.4 w=3 l=0.15
X215 VDDA.t175 X.t36 VOUT-.t6 VDDA.t174 sky130_fd_pr__pfet_01v8 ad=1.2 pd=6.4 as=1.2 ps=6.4 w=6 l=0.15
X216 Y.t9 Vb2.t11 VD4.t11 VD4.t10 sky130_fd_pr__pfet_01v8 ad=0.7 pd=3.9 as=0.7 ps=3.9 w=3.5 l=0.2
X217 VOUT-.t80 cap_res_X.t77 sky130_fd_pr__cap_mim_m3_1 l=2 w=2
X218 VDDA.t60 Vb3.t9 VD3.t25 VDDA.t59 sky130_fd_pr__pfet_01v8 ad=0.7 pd=3.9 as=0.7 ps=3.9 w=3.5 l=0.2
X219 VOUT-.t81 cap_res_X.t76 sky130_fd_pr__cap_mim_m3_1 l=2 w=2
X220 VOUT-.t82 cap_res_X.t75 sky130_fd_pr__cap_mim_m3_1 l=2 w=2
X221 VD1.t14 Vb1.t20 X.t17 GNDA.t21 sky130_fd_pr__nfet_01v8 ad=0.3 pd=1.9 as=0.3 ps=1.9 w=1.5 l=0.15
X222 V_CMFB_S4.t2 Y.t37 VDDA.t87 GNDA.t88 sky130_fd_pr__nfet_01v8 ad=0.6 pd=3.4 as=0.6 ps=3.4 w=3 l=0.15
X223 VOUT+.t69 cap_res_Y.t88 sky130_fd_pr__cap_mim_m3_1 l=2 w=2
X224 VOUT-.t83 cap_res_X.t74 sky130_fd_pr__cap_mim_m3_1 l=2 w=2
X225 VDDA.t86 Y.t38 VOUT+.t8 VDDA.t85 sky130_fd_pr__pfet_01v8 ad=1.2 pd=6.4 as=1.2 ps=6.4 w=6 l=0.15
X226 VOUT+.t70 cap_res_Y.t87 sky130_fd_pr__cap_mim_m3_1 l=2 w=2
X227 VOUT+.t71 cap_res_Y.t86 sky130_fd_pr__cap_mim_m3_1 l=2 w=2
X228 VOUT+.t72 cap_res_Y.t85 sky130_fd_pr__cap_mim_m3_1 l=2 w=2
X229 err_amp_out.t3 V_err_amp_ref.t1 V_err_p.t0 VDDA.t25 sky130_fd_pr__pfet_01v8 ad=0.5 pd=2.9 as=0.5 ps=2.9 w=2.5 l=0.15
X230 VOUT+.t73 cap_res_Y.t84 sky130_fd_pr__cap_mim_m3_1 l=2 w=2
X231 VOUT-.t84 cap_res_X.t73 sky130_fd_pr__cap_mim_m3_1 l=2 w=2
X232 VOUT-.t85 cap_res_X.t72 sky130_fd_pr__cap_mim_m3_1 l=2 w=2
X233 VOUT+.t74 cap_res_Y.t83 sky130_fd_pr__cap_mim_m3_1 l=2 w=2
X234 VOUT+.t75 cap_res_Y.t82 sky130_fd_pr__cap_mim_m3_1 l=2 w=2
X235 VD2.t4 VIN+.t4 V_source.t28 GNDA.t6 sky130_fd_pr__nfet_01v8 ad=0.3 pd=1.9 as=0.3 ps=1.9 w=1.5 l=0.15
X236 Vb2.t2 Vb2_2.t7 Vb2_2.t9 Vb2_2.t8 sky130_fd_pr__pfet_01v8 ad=0.7 pd=3.9 as=1.4 ps=7.8 w=3.5 l=0.2
X237 err_amp_mir.t4 GNDA.t137 GNDA.t138 GNDA.t40 sky130_fd_pr__nfet_01v8 ad=0.5 pd=2.9 as=1 ps=5.8 w=2.5 l=0.15
X238 VOUT-.t86 cap_res_X.t71 sky130_fd_pr__cap_mim_m3_1 l=2 w=2
X239 VD3.t16 VDDA.t125 VDDA.t127 VDDA.t126 sky130_fd_pr__pfet_01v8 ad=0.7 pd=3.9 as=1.4 ps=7.8 w=3.5 l=0.2
X240 cap_res_X.t0 X.t8 GNDA.t67 sky130_fd_pr__res_high_po_1p41 l=1.41
X241 VOUT-.t87 cap_res_X.t70 sky130_fd_pr__cap_mim_m3_1 l=2 w=2
X242 GNDA.t175 X.t37 V_CMFB_S1.t5 VDDA.t173 sky130_fd_pr__pfet_01v8 ad=0.4 pd=2.4 as=0.4 ps=2.4 w=2 l=0.15
X243 VOUT+.t76 cap_res_Y.t81 sky130_fd_pr__cap_mim_m3_1 l=2 w=2
X244 VOUT-.t88 cap_res_X.t69 sky130_fd_pr__cap_mim_m3_1 l=2 w=2
X245 VOUT-.t89 cap_res_X.t68 sky130_fd_pr__cap_mim_m3_1 l=2 w=2
X246 GNDA.t79 Y.t39 V_CMFB_S3.t5 VDDA.t84 sky130_fd_pr__pfet_01v8 ad=0.4 pd=2.4 as=0.4 ps=2.4 w=2 l=0.15
X247 VOUT+.t77 cap_res_Y.t80 sky130_fd_pr__cap_mim_m3_1 l=2 w=2
X248 VOUT+.t78 cap_res_Y.t79 sky130_fd_pr__cap_mim_m3_1 l=2 w=2
X249 Y.t20 Vb2.t12 VD4.t32 VD4.t31 sky130_fd_pr__pfet_01v8 ad=0.7 pd=3.9 as=0.7 ps=3.9 w=3.5 l=0.2
X250 VD2.t16 Vb1.t21 Y.t11 GNDA.t58 sky130_fd_pr__nfet_01v8 ad=0.3 pd=1.9 as=0.3 ps=1.9 w=1.5 l=0.15
X251 GNDA.t136 GNDA.t134 VOUT-.t1 GNDA.t135 sky130_fd_pr__nfet_01v8 ad=2.8 pd=14.8 as=1.4 ps=7.4 w=7 l=0.6
X252 V_source.t18 V_tail_gate.t11 GNDA.t51 GNDA.t50 sky130_fd_pr__nfet_01v8 ad=0.5 pd=2.9 as=0.5 ps=2.9 w=2.5 l=0.15
X253 VOUT-.t90 cap_res_X.t67 sky130_fd_pr__cap_mim_m3_1 l=2 w=2
X254 VOUT-.t91 cap_res_X.t66 sky130_fd_pr__cap_mim_m3_1 l=2 w=2
X255 V_CMFB_S2.t7 X.t38 VDDA.t172 GNDA.t174 sky130_fd_pr__nfet_01v8 ad=0.6 pd=3.4 as=0.6 ps=3.4 w=3 l=0.15
X256 VD3.t31 Vb2.t13 X.t23 VD3.t30 sky130_fd_pr__pfet_01v8 ad=0.7 pd=3.9 as=0.7 ps=3.9 w=3.5 l=0.2
X257 VOUT+.t79 cap_res_Y.t78 sky130_fd_pr__cap_mim_m3_1 l=2 w=2
X258 V_CMFB_S2.t6 X.t39 VDDA.t62 GNDA.t73 sky130_fd_pr__nfet_01v8 ad=0.6 pd=3.4 as=0.6 ps=3.4 w=3 l=0.15
X259 VOUT+.t80 cap_res_Y.t77 sky130_fd_pr__cap_mim_m3_1 l=2 w=2
X260 VDDA.t191 X.t40 VOUT-.t11 VDDA.t190 sky130_fd_pr__pfet_01v8 ad=1.2 pd=6.4 as=1.2 ps=6.4 w=6 l=0.15
X261 GNDA.t133 GNDA.t132 V_p_mir.t1 GNDA.t110 sky130_fd_pr__nfet_01v8 ad=1 pd=5.8 as=0.5 ps=2.9 w=2.5 l=0.15
X262 GNDA.t131 GNDA.t130 Y.t5 GNDA.t117 sky130_fd_pr__nfet_01v8 ad=0.6 pd=3.8 as=0.3 ps=1.9 w=1.5 l=0.15
X263 VOUT-.t92 cap_res_X.t65 sky130_fd_pr__cap_mim_m3_1 l=2 w=2
X264 VOUT+.t81 cap_res_Y.t76 sky130_fd_pr__cap_mim_m3_1 l=2 w=2
X265 VOUT+.t82 cap_res_Y.t75 sky130_fd_pr__cap_mim_m3_1 l=2 w=2
X266 VOUT-.t0 GNDA.t127 GNDA.t129 GNDA.t128 sky130_fd_pr__nfet_01v8 ad=1.4 pd=7.4 as=2.8 ps=14.8 w=7 l=0.6
X267 V_p_mir.t0 VIN+.t5 V_tail_gate.t0 GNDA.t1 sky130_fd_pr__nfet_01v8 ad=0.3 pd=1.9 as=0.3 ps=1.9 w=1.5 l=0.15
X268 VOUT-.t93 cap_res_X.t64 sky130_fd_pr__cap_mim_m3_1 l=2 w=2
X269 GNDA.t189 V_tail_gate.t12 V_source.t38 GNDA.t188 sky130_fd_pr__nfet_01v8 ad=0.5 pd=2.9 as=0.5 ps=2.9 w=2.5 l=0.15
X270 a_n2860_594.t1 V_CMFB_S3.t10 GNDA.t185 sky130_fd_pr__res_xhigh_po_0p35 l=1.75
X271 VOUT+.t83 cap_res_Y.t74 sky130_fd_pr__cap_mim_m3_1 l=2 w=2
X272 V_source.t21 V_tail_gate.t13 GNDA.t64 GNDA.t63 sky130_fd_pr__nfet_01v8 ad=0.5 pd=2.9 as=0.5 ps=2.9 w=2.5 l=0.15
X273 VD4.t17 Vb3.t10 VDDA.t50 VDDA.t49 sky130_fd_pr__pfet_01v8 ad=0.7 pd=3.9 as=0.7 ps=3.9 w=3.5 l=0.2
X274 GNDA.t126 GNDA.t124 V_source.t33 GNDA.t125 sky130_fd_pr__nfet_01v8 ad=1 pd=5.8 as=0.5 ps=2.9 w=2.5 l=0.15
X275 VD1.t15 Vb1.t22 X.t16 GNDA.t28 sky130_fd_pr__nfet_01v8 ad=0.3 pd=1.9 as=0.3 ps=1.9 w=1.5 l=0.15
X276 VOUT-.t94 cap_res_X.t63 sky130_fd_pr__cap_mim_m3_1 l=2 w=2
X277 V_source.t10 V_tail_gate.t14 GNDA.t35 GNDA.t34 sky130_fd_pr__nfet_01v8 ad=0.5 pd=2.9 as=0.5 ps=2.9 w=2.5 l=0.15
X278 V_CMFB_S4.t10 Y.t40 VDDA.t83 GNDA.t87 sky130_fd_pr__nfet_01v8 ad=0.6 pd=3.4 as=0.6 ps=3.4 w=3 l=0.15
X279 VOUT+.t84 cap_res_Y.t73 sky130_fd_pr__cap_mim_m3_1 l=2 w=2
X280 VOUT-.t95 cap_res_X.t62 sky130_fd_pr__cap_mim_m3_1 l=2 w=2
X281 V_b_2nd_stage.t1 a_n2580_n2210.t1 GNDA.t190 sky130_fd_pr__res_xhigh_po_0p35 l=2.63
X282 VDDA.t40 V_err_gate.t6 V_err_p.t2 VDDA.t39 sky130_fd_pr__pfet_01v8 ad=0.5 pd=2.9 as=0.5 ps=2.9 w=2.5 l=0.15
X283 VOUT+.t85 cap_res_Y.t72 sky130_fd_pr__cap_mim_m3_1 l=2 w=2
X284 VD3.t24 Vb3.t11 VDDA.t58 VDDA.t57 sky130_fd_pr__pfet_01v8 ad=0.7 pd=3.9 as=0.7 ps=3.9 w=3.5 l=0.2
X285 VOUT-.t96 cap_res_X.t61 sky130_fd_pr__cap_mim_m3_1 l=2 w=2
X286 VOUT-.t97 cap_res_X.t60 sky130_fd_pr__cap_mim_m3_1 l=2 w=2
X287 VOUT+.t86 cap_res_Y.t71 sky130_fd_pr__cap_mim_m3_1 l=2 w=2
X288 GNDA.t76 Y.t41 V_CMFB_S3.t4 VDDA.t82 sky130_fd_pr__pfet_01v8 ad=0.4 pd=2.4 as=0.4 ps=2.4 w=2 l=0.15
X289 VOUT+.t87 cap_res_Y.t70 sky130_fd_pr__cap_mim_m3_1 l=2 w=2
X290 VOUT+.t88 cap_res_Y.t69 sky130_fd_pr__cap_mim_m3_1 l=2 w=2
X291 VOUT+.t89 cap_res_Y.t68 sky130_fd_pr__cap_mim_m3_1 l=2 w=2
X292 GNDA.t198 V_b_2nd_stage.t6 VOUT+.t18 GNDA.t197 sky130_fd_pr__nfet_01v8 ad=1.4 pd=7.4 as=1.4 ps=7.4 w=7 l=0.6
X293 V_CMFB_S3.t3 Y.t42 GNDA.t85 VDDA.t81 sky130_fd_pr__pfet_01v8 ad=0.4 pd=2.4 as=0.4 ps=2.4 w=2 l=0.15
X294 VD2.t9 VIN+.t6 V_source.t27 GNDA.t37 sky130_fd_pr__nfet_01v8 ad=0.3 pd=1.9 as=0.3 ps=1.9 w=1.5 l=0.15
X295 VOUT-.t98 cap_res_X.t59 sky130_fd_pr__cap_mim_m3_1 l=2 w=2
X296 VOUT-.t99 cap_res_X.t58 sky130_fd_pr__cap_mim_m3_1 l=2 w=2
X297 VOUT-.t100 cap_res_X.t57 sky130_fd_pr__cap_mim_m3_1 l=2 w=2
X298 VOUT+.t90 cap_res_Y.t67 sky130_fd_pr__cap_mim_m3_1 l=2 w=2
X299 VOUT+.t91 cap_res_Y.t66 sky130_fd_pr__cap_mim_m3_1 l=2 w=2
X300 VOUT+.t92 cap_res_Y.t65 sky130_fd_pr__cap_mim_m3_1 l=2 w=2
X301 Vb1.t0 GNDA.t122 GNDA.t123 GNDA.t12 sky130_fd_pr__nfet_01v8 ad=0.3 pd=1.9 as=0.6 ps=3.8 w=1.5 l=0.15
X302 Vb1.t7 Vb1.t6 Vb1_2.t3 GNDA.t40 sky130_fd_pr__nfet_01v8 ad=0.3 pd=1.9 as=0.3 ps=1.9 w=1.5 l=0.15
X303 V_CMFB_S2.t5 X.t41 VDDA.t186 GNDA.t179 sky130_fd_pr__nfet_01v8 ad=0.6 pd=3.4 as=0.6 ps=3.4 w=3 l=0.15
X304 VD3.t23 Vb3.t12 VDDA.t7 VDDA.t6 sky130_fd_pr__pfet_01v8 ad=0.7 pd=3.9 as=0.7 ps=3.9 w=3.5 l=0.2
X305 VOUT-.t101 cap_res_X.t56 sky130_fd_pr__cap_mim_m3_1 l=2 w=2
X306 VOUT+.t93 cap_res_Y.t64 sky130_fd_pr__cap_mim_m3_1 l=2 w=2
X307 VOUT+.t94 cap_res_Y.t63 sky130_fd_pr__cap_mim_m3_1 l=2 w=2
X308 GNDA.t182 X.t42 V_CMFB_S1.t4 VDDA.t189 sky130_fd_pr__pfet_01v8 ad=0.4 pd=2.4 as=0.4 ps=2.4 w=2 l=0.15
X309 VD2.t11 GNDA.t119 GNDA.t121 GNDA.t120 sky130_fd_pr__nfet_01v8 ad=0.3 pd=1.9 as=0.6 ps=3.8 w=1.5 l=0.15
X310 GNDA.t202 V_tail_gate.t15 V_p_mir.t4 GNDA.t1 sky130_fd_pr__nfet_01v8 ad=0.5 pd=2.9 as=0.5 ps=2.9 w=2.5 l=0.15
X311 VOUT+.t95 cap_res_Y.t62 sky130_fd_pr__cap_mim_m3_1 l=2 w=2
X312 VOUT+.t96 cap_res_Y.t61 sky130_fd_pr__cap_mim_m3_1 l=2 w=2
X313 GNDA.t86 Y.t43 V_CMFB_S3.t2 VDDA.t80 sky130_fd_pr__pfet_01v8 ad=0.4 pd=2.4 as=0.4 ps=2.4 w=2 l=0.15
X314 VOUT-.t102 cap_res_X.t55 sky130_fd_pr__cap_mim_m3_1 l=2 w=2
X315 VOUT+.t97 cap_res_Y.t60 sky130_fd_pr__cap_mim_m3_1 l=2 w=2
X316 VDDA.t124 VDDA.t122 GNDA.t97 VDDA.t123 sky130_fd_pr__pfet_01v8 ad=0.8 pd=4.8 as=0.4 ps=2.4 w=2 l=0.15
X317 VDDA.t121 VDDA.t119 VD4.t29 VDDA.t120 sky130_fd_pr__pfet_01v8 ad=1.4 pd=7.8 as=0.7 ps=3.9 w=3.5 l=0.2
X318 VOUT-.t103 cap_res_X.t54 sky130_fd_pr__cap_mim_m3_1 l=2 w=2
X319 VOUT-.t104 cap_res_X.t53 sky130_fd_pr__cap_mim_m3_1 l=2 w=2
X320 V_CMFB_S4.t7 Y.t44 VDDA.t79 GNDA.t84 sky130_fd_pr__nfet_01v8 ad=0.6 pd=3.4 as=0.6 ps=3.4 w=3 l=0.15
X321 VOUT+.t98 cap_res_Y.t59 sky130_fd_pr__cap_mim_m3_1 l=2 w=2
X322 VOUT+.t99 cap_res_Y.t58 sky130_fd_pr__cap_mim_m3_1 l=2 w=2
X323 VOUT+.t100 cap_res_Y.t57 sky130_fd_pr__cap_mim_m3_1 l=2 w=2
X324 VOUT-.t105 cap_res_X.t52 sky130_fd_pr__cap_mim_m3_1 l=2 w=2
X325 VOUT-.t106 cap_res_X.t51 sky130_fd_pr__cap_mim_m3_1 l=2 w=2
X326 VOUT-.t107 cap_res_X.t50 sky130_fd_pr__cap_mim_m3_1 l=2 w=2
X327 VOUT+.t101 cap_res_Y.t56 sky130_fd_pr__cap_mim_m3_1 l=2 w=2
X328 a_6050_594.t0 V_CMFB_S1.t0 GNDA.t30 sky130_fd_pr__res_xhigh_po_0p35 l=1.75
X329 VD2.t15 Vb1.t23 Y.t8 GNDA.t32 sky130_fd_pr__nfet_01v8 ad=0.3 pd=1.9 as=0.3 ps=1.9 w=1.5 l=0.15
X330 VOUT+.t102 cap_res_Y.t55 sky130_fd_pr__cap_mim_m3_1 l=2 w=2
X331 Vb2_2.t2 Vb2.t0 Vb2.t1 Vb2_2.t1 sky130_fd_pr__pfet_01v8 ad=0.7 pd=3.9 as=0.7 ps=3.9 w=3.5 l=0.2
X332 VOUT+.t103 cap_res_Y.t54 sky130_fd_pr__cap_mim_m3_1 l=2 w=2
X333 VOUT-.t108 cap_res_X.t49 sky130_fd_pr__cap_mim_m3_1 l=2 w=2
X334 VOUT+.t104 cap_res_Y.t53 sky130_fd_pr__cap_mim_m3_1 l=2 w=2
X335 GNDA.t27 V_tail_gate.t16 V_source.t8 GNDA.t26 sky130_fd_pr__nfet_01v8 ad=0.5 pd=2.9 as=0.5 ps=2.9 w=2.5 l=0.15
X336 V_source.t12 VIN-.t5 VD1.t6 GNDA.t18 sky130_fd_pr__nfet_01v8 ad=0.3 pd=1.9 as=0.3 ps=1.9 w=1.5 l=0.15
X337 VDDA.t48 Vb3.t13 VD3.t22 VDDA.t47 sky130_fd_pr__pfet_01v8 ad=0.7 pd=3.9 as=0.7 ps=3.9 w=3.5 l=0.2
X338 GNDA.t49 V_tail_gate.t17 V_source.t17 GNDA.t48 sky130_fd_pr__nfet_01v8 ad=0.5 pd=2.9 as=0.5 ps=2.9 w=2.5 l=0.15
X339 V_source.t39 V_tail_gate.t18 GNDA.t193 GNDA.t72 sky130_fd_pr__nfet_01v8 ad=0.5 pd=2.9 as=0.5 ps=2.9 w=2.5 l=0.15
X340 X.t2 VD3.t32 VD3.t34 VD3.t33 sky130_fd_pr__pfet_01v8 ad=0.7 pd=3.9 as=1.4 ps=7.8 w=3.5 l=0.2
X341 VD4.t35 Vb2.t14 Y.t23 VD4.t34 sky130_fd_pr__pfet_01v8 ad=0.7 pd=3.9 as=0.7 ps=3.9 w=3.5 l=0.2
X342 VOUT-.t109 cap_res_X.t48 sky130_fd_pr__cap_mim_m3_1 l=2 w=2
X343 VOUT+.t105 cap_res_Y.t52 sky130_fd_pr__cap_mim_m3_1 l=2 w=2
X344 VD1.t2 VIN-.t6 V_source.t4 GNDA.t15 sky130_fd_pr__nfet_01v8 ad=0.3 pd=1.9 as=0.3 ps=1.9 w=1.5 l=0.15
X345 VOUT+.t106 cap_res_Y.t51 sky130_fd_pr__cap_mim_m3_1 l=2 w=2
X346 VOUT+.t7 Y.t45 VDDA.t78 VDDA.t77 sky130_fd_pr__pfet_01v8 ad=1.2 pd=6.4 as=1.2 ps=6.4 w=6 l=0.15
X347 VOUT-.t110 cap_res_X.t47 sky130_fd_pr__cap_mim_m3_1 l=2 w=2
X348 VOUT-.t111 cap_res_X.t46 sky130_fd_pr__cap_mim_m3_1 l=2 w=2
X349 X.t7 Vb2.t15 VD3.t13 VD3.t12 sky130_fd_pr__pfet_01v8 ad=0.7 pd=3.9 as=0.7 ps=3.9 w=3.5 l=0.2
X350 V_err_gate.t1 V_tot.t4 V_err_mir_p.t3 VDDA.t61 sky130_fd_pr__pfet_01v8 ad=0.5 pd=2.9 as=0.5 ps=2.9 w=2.5 l=0.15
X351 VOUT+.t107 cap_res_Y.t50 sky130_fd_pr__cap_mim_m3_1 l=2 w=2
X352 VOUT+.t108 cap_res_Y.t49 sky130_fd_pr__cap_mim_m3_1 l=2 w=2