* NGSPICE file created from two_stage_opamp_dummy_magic.ext - technology: sky130A

.subckt two_stage_opamp_dummy_magic VDDA V_CMFB_S1 V_CMFB_S3 Vb3 Vb2 Vb1 V_CMFB_S2
+ V_CMFB_S4 VOUT- VOUT+ V_tail_gate V_err_amp_ref V_err_gate VIN+ VIN- GNDA
X0 VD4 Vb2 Y VD4 sky130_fd_pr__pfet_01v8 ad=0.7 pd=3.9 as=0.7 ps=3.9 w=3.5 l=0.2
X1 VD1 VIN- V_source GNDA sky130_fd_pr__nfet_01v8 ad=0.3 pd=1.9 as=0.3 ps=1.9 w=1.5 l=0.15
X2 VDDA Vb3 VD3 VDDA sky130_fd_pr__pfet_01v8 ad=0.7 pd=3.9 as=0.7 ps=3.9 w=3.5 l=0.2
X3 VOUT- X VDDA VDDA sky130_fd_pr__pfet_01v8 ad=1.2 pd=6.4 as=1.2 ps=6.4 w=6 l=0.15
X4 VOUT- cap_res_X sky130_fd_pr__cap_mim_m3_1 l=2 w=2
X5 VOUT+ cap_res_Y sky130_fd_pr__cap_mim_m3_1 l=2 w=2
X6 VOUT- cap_res_X sky130_fd_pr__cap_mim_m3_1 l=2 w=2
X7 VOUT+ cap_res_Y sky130_fd_pr__cap_mim_m3_1 l=2 w=2
X8 VOUT- cap_res_X sky130_fd_pr__cap_mim_m3_1 l=2 w=2
X9 VOUT+ cap_res_Y sky130_fd_pr__cap_mim_m3_1 l=2 w=2
X10 err_amp_out GNDA GNDA GNDA sky130_fd_pr__nfet_01v8 ad=0.1 pd=0.9 as=0.2 ps=1.8 w=0.5 l=0.15
X11 VDDA Vb3 VD3 VDDA sky130_fd_pr__pfet_01v8 ad=0.7 pd=3.9 as=0.7 ps=3.9 w=3.5 l=0.2
X12 VDDA X V_CMFB_S2 GNDA sky130_fd_pr__nfet_01v8 ad=0.6 pd=3.4 as=0.6 ps=3.4 w=3 l=0.15
X13 VDDA VDDA VDDA VDDA sky130_fd_pr__pfet_01v8 ad=0.64 pd=3.6 as=64.196 ps=364.18 w=3.2 l=0.2
X14 VOUT+ VDDA VDDA VDDA sky130_fd_pr__pfet_01v8 ad=1.2 pd=6.4 as=2.4 ps=12.8 w=6 l=0.15
X15 VDDA Y V_CMFB_S4 GNDA sky130_fd_pr__nfet_01v8 ad=0.6 pd=3.4 as=0.6 ps=3.4 w=3 l=0.15
X16 VDDA V_err_gate V_err_p VDDA sky130_fd_pr__pfet_01v8 ad=0.1 pd=0.9 as=0.1 ps=0.9 w=0.5 l=0.15
X17 VDDA Y V_CMFB_S4 GNDA sky130_fd_pr__nfet_01v8 ad=0.6 pd=3.4 as=0.6 ps=3.4 w=3 l=0.15
X18 Vb2_Vb3 Vb2_Vb3 Vb2_Vb3 Vb2_Vb3 sky130_fd_pr__pfet_01v8 ad=1.44 pd=8 as=5.6 ps=31.2 w=3.6 l=0.2
X19 a_118350_3958# V_tot GNDA sky130_fd_pr__res_xhigh_po_0p35 l=1.75
X20 VOUT+ cap_res_Y sky130_fd_pr__cap_mim_m3_1 l=2 w=2
X21 VOUT- cap_res_X sky130_fd_pr__cap_mim_m3_1 l=2 w=2
X22 VOUT+ cap_res_Y sky130_fd_pr__cap_mim_m3_1 l=2 w=2
X23 GNDA GNDA GNDA GNDA sky130_fd_pr__nfet_01v8 ad=1 pd=5.8 as=47.6 ps=271.6 w=2.5 l=0.15
X24 VD1 Vb1 X GNDA sky130_fd_pr__nfet_01v8 ad=0.3 pd=1.9 as=0.3 ps=1.9 w=1.5 l=0.15
X25 err_amp_mir V_tot V_err_p VDDA sky130_fd_pr__pfet_01v8 ad=0.1 pd=0.9 as=0.1 ps=0.9 w=0.5 l=0.15
X26 GNDA X V_CMFB_S1 VDDA sky130_fd_pr__pfet_01v8 ad=0.4 pd=2.4 as=0.4 ps=2.4 w=2 l=0.15
X27 V_source VIN- VD1 GNDA sky130_fd_pr__nfet_01v8 ad=0.3 pd=1.9 as=0.3 ps=1.9 w=1.5 l=0.15
X28 VOUT+ cap_res_Y sky130_fd_pr__cap_mim_m3_1 l=2 w=2
X29 GNDA err_amp_mir err_amp_out GNDA sky130_fd_pr__nfet_01v8 ad=0.1 pd=0.9 as=0.1 ps=0.9 w=0.5 l=0.15
X30 GNDA GNDA VOUT+ GNDA sky130_fd_pr__nfet_01v8 ad=2.8 pd=14.8 as=1.4 ps=7.4 w=7 l=0.6
X31 VD2 Vb1 Y GNDA sky130_fd_pr__nfet_01v8 ad=0.3 pd=1.9 as=0.3 ps=1.9 w=1.5 l=0.15
X32 VD4 Vb2 Y VD4 sky130_fd_pr__pfet_01v8 ad=0.7 pd=3.9 as=0.7 ps=3.9 w=3.5 l=0.2
X33 VDDA Vb3 VD3 VDDA sky130_fd_pr__pfet_01v8 ad=0.7 pd=3.9 as=0.7 ps=3.9 w=3.5 l=0.2
X34 VOUT+ cap_res_Y sky130_fd_pr__cap_mim_m3_1 l=2 w=2
X35 VOUT- cap_res_X sky130_fd_pr__cap_mim_m3_1 l=2 w=2
X36 VOUT- cap_res_X sky130_fd_pr__cap_mim_m3_1 l=2 w=2
X37 VOUT+ cap_res_Y sky130_fd_pr__cap_mim_m3_1 l=2 w=2
X38 VOUT+ cap_res_Y sky130_fd_pr__cap_mim_m3_1 l=2 w=2
X39 VOUT+ cap_res_Y sky130_fd_pr__cap_mim_m3_1 l=2 w=2
X40 VOUT- cap_res_X sky130_fd_pr__cap_mim_m3_1 l=2 w=2
X41 V_source V_tail_gate GNDA GNDA sky130_fd_pr__nfet_01v8 ad=0.5 pd=2.9 as=0.5 ps=2.9 w=2.5 l=0.15
X42 VOUT- cap_res_X sky130_fd_pr__cap_mim_m3_1 l=2 w=2
X43 V_CMFB_S3 Y GNDA VDDA sky130_fd_pr__pfet_01v8 ad=0.4 pd=2.4 as=0.4 ps=2.4 w=2 l=0.15
X44 VD3 Vb2 X VD3 sky130_fd_pr__pfet_01v8 ad=0.7 pd=3.9 as=0.7 ps=3.9 w=3.5 l=0.2
X45 VOUT- X VDDA VDDA sky130_fd_pr__pfet_01v8 ad=1.2 pd=6.4 as=1.2 ps=6.4 w=6 l=0.15
X46 VDDA VDDA GNDA VDDA sky130_fd_pr__pfet_01v8 ad=0.8 pd=4.8 as=0.4 ps=2.4 w=2 l=0.15
X47 V_err_gate V_err_amp_ref V_err_mir_p VDDA sky130_fd_pr__pfet_01v8 ad=0.1 pd=0.9 as=0.1 ps=0.9 w=0.5 l=0.15
X48 VOUT+ cap_res_Y sky130_fd_pr__cap_mim_m3_1 l=2 w=2
X49 Vb2_Vb3 Vb2_Vb3 Vb3 Vb2_Vb3 sky130_fd_pr__pfet_01v8 ad=1.44 pd=8 as=0.72 ps=4 w=3.6 l=0.2
X50 VOUT+ cap_res_Y sky130_fd_pr__cap_mim_m3_1 l=2 w=2
X51 VDDA Vb3 VD4 VDDA sky130_fd_pr__pfet_01v8 ad=0.7 pd=3.9 as=0.7 ps=3.9 w=3.5 l=0.2
X52 VOUT+ cap_res_Y sky130_fd_pr__cap_mim_m3_1 l=2 w=2
X53 VOUT+ cap_res_Y sky130_fd_pr__cap_mim_m3_1 l=2 w=2
X54 VOUT+ cap_res_Y sky130_fd_pr__cap_mim_m3_1 l=2 w=2
X55 VOUT+ cap_res_Y sky130_fd_pr__cap_mim_m3_1 l=2 w=2
X56 VOUT- V_b_2nd_stage GNDA GNDA sky130_fd_pr__nfet_01v8 ad=1.4 pd=7.4 as=1.4 ps=7.4 w=7 l=0.6
X57 VDDA X V_CMFB_S2 GNDA sky130_fd_pr__nfet_01v8 ad=0.6 pd=3.4 as=0.6 ps=3.4 w=3 l=0.15
X58 VDDA V_err_gate V_err_mir_p VDDA sky130_fd_pr__pfet_01v8 ad=0.1 pd=0.9 as=0.1 ps=0.9 w=0.5 l=0.15
X59 VOUT+ cap_res_Y sky130_fd_pr__cap_mim_m3_1 l=2 w=2
X60 VOUT- cap_res_X sky130_fd_pr__cap_mim_m3_1 l=2 w=2
X61 VD3 Vb3 VDDA VDDA sky130_fd_pr__pfet_01v8 ad=0.7 pd=3.9 as=0.7 ps=3.9 w=3.5 l=0.2
X62 VDDA V_err_gate V_err_mir_p VDDA sky130_fd_pr__pfet_01v8 ad=0.1 pd=0.9 as=0.1 ps=0.9 w=0.5 l=0.15
X63 VOUT+ cap_res_Y sky130_fd_pr__cap_mim_m3_1 l=2 w=2
X64 VD1 Vb1 X GNDA sky130_fd_pr__nfet_01v8 ad=0.3 pd=1.9 as=0.3 ps=1.9 w=1.5 l=0.15
X65 err_amp_mir V_tot V_err_p VDDA sky130_fd_pr__pfet_01v8 ad=0.1 pd=0.9 as=0.1 ps=0.9 w=0.5 l=0.15
X66 VOUT+ cap_res_Y sky130_fd_pr__cap_mim_m3_1 l=2 w=2
X67 GNDA V_tail_gate V_source GNDA sky130_fd_pr__nfet_01v8 ad=0.5 pd=2.9 as=0.5 ps=2.9 w=2.5 l=0.15
X68 VDDA Y VOUT+ VDDA sky130_fd_pr__pfet_01v8 ad=1.2 pd=6.4 as=1.2 ps=6.4 w=6 l=0.15
X69 VDDA VDDA VOUT+ VDDA sky130_fd_pr__pfet_01v8 ad=2.4 pd=12.8 as=1.2 ps=6.4 w=6 l=0.15
X70 GNDA X V_CMFB_S1 VDDA sky130_fd_pr__pfet_01v8 ad=0.4 pd=2.4 as=0.4 ps=2.4 w=2 l=0.15
X71 VOUT- cap_res_X sky130_fd_pr__cap_mim_m3_1 l=2 w=2
X72 V_source VIN+ VD2 GNDA sky130_fd_pr__nfet_01v8 ad=0.3 pd=1.9 as=0.3 ps=1.9 w=1.5 l=0.15
X73 VOUT+ cap_res_Y sky130_fd_pr__cap_mim_m3_1 l=2 w=2
X74 VOUT+ cap_res_Y sky130_fd_pr__cap_mim_m3_1 l=2 w=2
X75 VDDA GNDA GNDA GNDA sky130_fd_pr__nfet_01v8 ad=0.6 pd=3.4 as=1.2 ps=6.8 w=3 l=0.15
X76 VOUT+ cap_res_Y sky130_fd_pr__cap_mim_m3_1 l=2 w=2
X77 GNDA err_amp_mir err_amp_mir GNDA sky130_fd_pr__nfet_01v8 ad=0.1 pd=0.9 as=0.1 ps=0.9 w=0.5 l=0.15
X78 VOUT+ cap_res_Y sky130_fd_pr__cap_mim_m3_1 l=2 w=2
X79 VDDA Vb3 VD4 VDDA sky130_fd_pr__pfet_01v8 ad=0.7 pd=3.9 as=0.7 ps=3.9 w=3.5 l=0.2
X80 GNDA GNDA err_amp_mir GNDA sky130_fd_pr__nfet_01v8 ad=0.2 pd=1.8 as=0.1 ps=0.9 w=0.5 l=0.15
X81 VOUT+ cap_res_Y sky130_fd_pr__cap_mim_m3_1 l=2 w=2
X82 VOUT- cap_res_X sky130_fd_pr__cap_mim_m3_1 l=2 w=2
X83 VOUT- cap_res_X sky130_fd_pr__cap_mim_m3_1 l=2 w=2
X84 VOUT+ cap_res_Y sky130_fd_pr__cap_mim_m3_1 l=2 w=2
X85 VOUT- cap_res_X sky130_fd_pr__cap_mim_m3_1 l=2 w=2
X86 VOUT+ cap_res_Y sky130_fd_pr__cap_mim_m3_1 l=2 w=2
X87 VOUT+ GNDA GNDA GNDA sky130_fd_pr__nfet_01v8 ad=1.4 pd=7.4 as=2.8 ps=14.8 w=7 l=0.6
X88 V_err_p V_err_gate VDDA VDDA sky130_fd_pr__pfet_01v8 ad=0.1 pd=0.9 as=0.1 ps=0.9 w=0.5 l=0.15
X89 VOUT+ cap_res_Y sky130_fd_pr__cap_mim_m3_1 l=2 w=2
X90 VOUT- cap_res_X sky130_fd_pr__cap_mim_m3_1 l=2 w=2
X91 V_source V_tail_gate GNDA GNDA sky130_fd_pr__nfet_01v8 ad=0.5 pd=2.9 as=0.5 ps=2.9 w=2.5 l=0.15
X92 V_CMFB_S3 Y GNDA VDDA sky130_fd_pr__pfet_01v8 ad=0.4 pd=2.4 as=0.4 ps=2.4 w=2 l=0.15
X93 GNDA GNDA V_tail_gate GNDA sky130_fd_pr__nfet_01v8 ad=0.6 pd=3.8 as=0.3 ps=1.9 w=1.5 l=0.15
X94 VD1 VIN- V_source GNDA sky130_fd_pr__nfet_01v8 ad=0.3 pd=1.9 as=0.3 ps=1.9 w=1.5 l=0.15
X95 VOUT- X VDDA VDDA sky130_fd_pr__pfet_01v8 ad=1.2 pd=6.4 as=1.2 ps=6.4 w=6 l=0.15
X96 VOUT+ cap_res_Y sky130_fd_pr__cap_mim_m3_1 l=2 w=2
X97 V_err_gate V_err_amp_ref V_err_mir_p VDDA sky130_fd_pr__pfet_01v8 ad=0.1 pd=0.9 as=0.1 ps=0.9 w=0.5 l=0.15
X98 VOUT+ cap_res_Y sky130_fd_pr__cap_mim_m3_1 l=2 w=2
X99 VOUT- cap_res_X sky130_fd_pr__cap_mim_m3_1 l=2 w=2
X100 VOUT+ V_b_2nd_stage GNDA GNDA sky130_fd_pr__nfet_01v8 ad=1.4 pd=7.4 as=1.4 ps=7.4 w=7 l=0.6
X101 VOUT+ cap_res_Y sky130_fd_pr__cap_mim_m3_1 l=2 w=2
X102 VD3 Vb3 VDDA VDDA sky130_fd_pr__pfet_01v8 ad=0.7 pd=3.9 as=0.7 ps=3.9 w=3.5 l=0.2
X103 VOUT- cap_res_X sky130_fd_pr__cap_mim_m3_1 l=2 w=2
X104 VOUT+ cap_res_Y sky130_fd_pr__cap_mim_m3_1 l=2 w=2
X105 VOUT+ cap_res_Y sky130_fd_pr__cap_mim_m3_1 l=2 w=2
X106 VOUT- cap_res_X sky130_fd_pr__cap_mim_m3_1 l=2 w=2
X107 Vb3 Vb2 Vb2_Vb3 Vb2_Vb3 sky130_fd_pr__pfet_01v8 ad=0.72 pd=4 as=0.72 ps=4 w=3.6 l=0.2
X108 a_118230_3958# V_tot GNDA sky130_fd_pr__res_xhigh_po_0p35 l=1.75
X109 VOUT- cap_res_X sky130_fd_pr__cap_mim_m3_1 l=2 w=2
X110 VDDA X V_CMFB_S2 GNDA sky130_fd_pr__nfet_01v8 ad=0.6 pd=3.4 as=0.6 ps=3.4 w=3 l=0.15
X111 VDDA V_err_gate V_err_mir_p VDDA sky130_fd_pr__pfet_01v8 ad=0.1 pd=0.9 as=0.1 ps=0.9 w=0.5 l=0.15
X112 VDDA V_err_gate V_err_p VDDA sky130_fd_pr__pfet_01v8 ad=0.1 pd=0.9 as=0.1 ps=0.9 w=0.5 l=0.15
X113 VOUT+ V_b_2nd_stage GNDA GNDA sky130_fd_pr__nfet_01v8 ad=1.4 pd=7.4 as=1.4 ps=7.4 w=7 l=0.6
X114 err_amp_out V_err_amp_ref V_err_p VDDA sky130_fd_pr__pfet_01v8 ad=0.1 pd=0.9 as=0.1 ps=0.9 w=0.5 l=0.15
X115 VOUT- cap_res_X sky130_fd_pr__cap_mim_m3_1 l=2 w=2
X116 VOUT+ cap_res_Y sky130_fd_pr__cap_mim_m3_1 l=2 w=2
X117 VDDA VDDA VD4 VDDA sky130_fd_pr__pfet_01v8 ad=1.4 pd=7.8 as=0.7 ps=3.9 w=3.5 l=0.2
X118 VDDA Y VOUT+ VDDA sky130_fd_pr__pfet_01v8 ad=1.2 pd=6.4 as=1.2 ps=6.4 w=6 l=0.15
X119 VOUT+ cap_res_Y sky130_fd_pr__cap_mim_m3_1 l=2 w=2
X120 VOUT- cap_res_X sky130_fd_pr__cap_mim_m3_1 l=2 w=2
X121 GNDA X V_CMFB_S1 VDDA sky130_fd_pr__pfet_01v8 ad=0.4 pd=2.4 as=0.4 ps=2.4 w=2 l=0.15
X122 VOUT- cap_res_X sky130_fd_pr__cap_mim_m3_1 l=2 w=2
X123 VOUT+ cap_res_Y sky130_fd_pr__cap_mim_m3_1 l=2 w=2
X124 VOUT+ cap_res_Y sky130_fd_pr__cap_mim_m3_1 l=2 w=2
X125 V_b_2nd_stage a_109460_966# GNDA sky130_fd_pr__res_xhigh_po_0p35 l=2.63
X126 VOUT- cap_res_X sky130_fd_pr__cap_mim_m3_1 l=2 w=2
X127 VD3 Vb3 VDDA VDDA sky130_fd_pr__pfet_01v8 ad=0.7 pd=3.9 as=0.7 ps=3.9 w=3.5 l=0.2
X128 VOUT- cap_res_X sky130_fd_pr__cap_mim_m3_1 l=2 w=2
X129 VOUT+ cap_res_Y sky130_fd_pr__cap_mim_m3_1 l=2 w=2
X130 X VD3 VD3 VD3 sky130_fd_pr__pfet_01v8 ad=0.7 pd=3.9 as=1.4 ps=7.8 w=3.5 l=0.2
X131 GNDA err_amp_mir err_amp_out GNDA sky130_fd_pr__nfet_01v8 ad=0.1 pd=0.9 as=0.1 ps=0.9 w=0.5 l=0.15
X132 VOUT- cap_res_X sky130_fd_pr__cap_mim_m3_1 l=2 w=2
X133 VOUT+ cap_res_Y sky130_fd_pr__cap_mim_m3_1 l=2 w=2
X134 VOUT+ cap_res_Y sky130_fd_pr__cap_mim_m3_1 l=2 w=2
X135 GNDA V_b_2nd_stage VOUT- GNDA sky130_fd_pr__nfet_01v8 ad=1.4 pd=7.4 as=1.4 ps=7.4 w=7 l=0.6
X136 V_CMFB_S4 Y VDDA GNDA sky130_fd_pr__nfet_01v8 ad=0.6 pd=3.4 as=0.6 ps=3.4 w=3 l=0.15
X137 VOUT+ cap_res_Y sky130_fd_pr__cap_mim_m3_1 l=2 w=2
X138 a_109060_3958# V_tot GNDA sky130_fd_pr__res_xhigh_po_0p35 l=1.75
X139 GNDA GNDA VDDA GNDA sky130_fd_pr__nfet_01v8 ad=1.2 pd=6.8 as=0.6 ps=3.4 w=3 l=0.15
X140 V_err_mir_p V_err_gate VDDA VDDA sky130_fd_pr__pfet_01v8 ad=0.1 pd=0.9 as=0.1 ps=0.9 w=0.5 l=0.15
X141 VOUT+ cap_res_Y sky130_fd_pr__cap_mim_m3_1 l=2 w=2
X142 VOUT- cap_res_X sky130_fd_pr__cap_mim_m3_1 l=2 w=2
X143 VOUT+ cap_res_Y sky130_fd_pr__cap_mim_m3_1 l=2 w=2
X144 V_err_p V_err_amp_ref err_amp_out VDDA sky130_fd_pr__pfet_01v8 ad=0.1 pd=0.9 as=0.1 ps=0.9 w=0.5 l=0.15
X145 VOUT+ cap_res_Y sky130_fd_pr__cap_mim_m3_1 l=2 w=2
X146 V_source V_tail_gate GNDA GNDA sky130_fd_pr__nfet_01v8 ad=0.5 pd=2.9 as=0.5 ps=2.9 w=2.5 l=0.15
X147 V_source V_tail_gate GNDA GNDA sky130_fd_pr__nfet_01v8 ad=0.5 pd=2.9 as=0.5 ps=2.9 w=2.5 l=0.15
X148 V_CMFB_S3 Y GNDA VDDA sky130_fd_pr__pfet_01v8 ad=0.4 pd=2.4 as=0.4 ps=2.4 w=2 l=0.15
X149 VOUT- cap_res_X sky130_fd_pr__cap_mim_m3_1 l=2 w=2
X150 VOUT- cap_res_X sky130_fd_pr__cap_mim_m3_1 l=2 w=2
X151 VOUT+ cap_res_Y sky130_fd_pr__cap_mim_m3_1 l=2 w=2
X152 VOUT- X VDDA VDDA sky130_fd_pr__pfet_01v8 ad=1.2 pd=6.4 as=1.2 ps=6.4 w=6 l=0.15
X153 V_p_mir VIN- V_tail_gate GNDA sky130_fd_pr__nfet_01v8 ad=0.3 pd=1.9 as=0.3 ps=1.9 w=1.5 l=0.15
X154 VD2 VIN+ V_source GNDA sky130_fd_pr__nfet_01v8 ad=0.3 pd=1.9 as=0.3 ps=1.9 w=1.5 l=0.15
X155 VOUT- cap_res_X sky130_fd_pr__cap_mim_m3_1 l=2 w=2
X156 V_err_gate V_tot V_err_mir_p VDDA sky130_fd_pr__pfet_01v8 ad=0.1 pd=0.9 as=0.1 ps=0.9 w=0.5 l=0.15
X157 VOUT- cap_res_X sky130_fd_pr__cap_mim_m3_1 l=2 w=2
X158 GNDA V_b_2nd_stage VOUT- GNDA sky130_fd_pr__nfet_01v8 ad=1.4 pd=7.4 as=1.4 ps=7.4 w=7 l=0.6
X159 VD4 Vb3 VDDA VDDA sky130_fd_pr__pfet_01v8 ad=0.7 pd=3.9 as=0.7 ps=3.9 w=3.5 l=0.2
X160 Y Vb1 VD2 GNDA sky130_fd_pr__nfet_01v8 ad=0.3 pd=1.9 as=0.3 ps=1.9 w=1.5 l=0.15
X161 VOUT+ cap_res_Y sky130_fd_pr__cap_mim_m3_1 l=2 w=2
X162 VOUT- cap_res_X sky130_fd_pr__cap_mim_m3_1 l=2 w=2
X163 VDDA VDDA VDDA VDDA sky130_fd_pr__pfet_01v8 ad=0.252 pd=2.06 as=0 ps=0 w=0.63 l=0.2
X164 VOUT+ cap_res_Y sky130_fd_pr__cap_mim_m3_1 l=2 w=2
X165 VDDA X V_CMFB_S2 GNDA sky130_fd_pr__nfet_01v8 ad=0.6 pd=3.4 as=0.6 ps=3.4 w=3 l=0.15
X166 VDDA V_err_gate V_err_p VDDA sky130_fd_pr__pfet_01v8 ad=0.1 pd=0.9 as=0.1 ps=0.9 w=0.5 l=0.15
X167 VOUT- cap_res_X sky130_fd_pr__cap_mim_m3_1 l=2 w=2
X168 GNDA GNDA V_source GNDA sky130_fd_pr__nfet_01v8 ad=1 pd=5.8 as=0.5 ps=2.9 w=2.5 l=0.15
X169 VOUT- cap_res_X sky130_fd_pr__cap_mim_m3_1 l=2 w=2
X170 VOUT+ cap_res_Y sky130_fd_pr__cap_mim_m3_1 l=2 w=2
X171 VOUT- cap_res_X sky130_fd_pr__cap_mim_m3_1 l=2 w=2
X172 VOUT- cap_res_X sky130_fd_pr__cap_mim_m3_1 l=2 w=2
X173 VOUT- cap_res_X sky130_fd_pr__cap_mim_m3_1 l=2 w=2
X174 err_amp_mir VDDA VDDA VDDA sky130_fd_pr__pfet_01v8 ad=0.1 pd=0.9 as=0.2 ps=1.8 w=0.5 l=0.15
X175 VDDA Y VOUT+ VDDA sky130_fd_pr__pfet_01v8 ad=1.2 pd=6.4 as=1.2 ps=6.4 w=6 l=0.15
X176 VOUT- cap_res_X sky130_fd_pr__cap_mim_m3_1 l=2 w=2
X177 GNDA VDDA VDDA VDDA sky130_fd_pr__pfet_01v8 ad=0.4 pd=2.4 as=0.8 ps=4.8 w=2 l=0.15
X178 VD4 Vb3 VDDA VDDA sky130_fd_pr__pfet_01v8 ad=0.7 pd=3.9 as=0.7 ps=3.9 w=3.5 l=0.2
X179 VOUT- cap_res_X sky130_fd_pr__cap_mim_m3_1 l=2 w=2
X180 a_108940_3958# V_CMFB_S4 GNDA sky130_fd_pr__res_xhigh_po_0p35 l=1.75
X181 VOUT+ cap_res_Y sky130_fd_pr__cap_mim_m3_1 l=2 w=2
X182 V_CMFB_S4 Y VDDA GNDA sky130_fd_pr__nfet_01v8 ad=0.6 pd=3.4 as=0.6 ps=3.4 w=3 l=0.15
X183 VOUT- cap_res_X sky130_fd_pr__cap_mim_m3_1 l=2 w=2
X184 VOUT- cap_res_X sky130_fd_pr__cap_mim_m3_1 l=2 w=2
X185 VOUT- cap_res_X sky130_fd_pr__cap_mim_m3_1 l=2 w=2
X186 VOUT- cap_res_X sky130_fd_pr__cap_mim_m3_1 l=2 w=2
X187 VOUT+ cap_res_Y sky130_fd_pr__cap_mim_m3_1 l=2 w=2
X188 VD4 Vb3 VDDA VDDA sky130_fd_pr__pfet_01v8 ad=0.7 pd=3.9 as=0.7 ps=3.9 w=3.5 l=0.2
X189 VOUT- cap_res_X sky130_fd_pr__cap_mim_m3_1 l=2 w=2
X190 VOUT+ cap_res_Y sky130_fd_pr__cap_mim_m3_1 l=2 w=2
X191 V_err_p V_tot err_amp_mir VDDA sky130_fd_pr__pfet_01v8 ad=0.1 pd=0.9 as=0.1 ps=0.9 w=0.5 l=0.15
X192 X Vb1 VD1 GNDA sky130_fd_pr__nfet_01v8 ad=0.3 pd=1.9 as=0.3 ps=1.9 w=1.5 l=0.15
X193 X Vb2 VD3 VD3 sky130_fd_pr__pfet_01v8 ad=0.7 pd=3.9 as=0.7 ps=3.9 w=3.5 l=0.2
X194 V_source V_tail_gate GNDA GNDA sky130_fd_pr__nfet_01v8 ad=0.5 pd=2.9 as=0.5 ps=2.9 w=2.5 l=0.15
X195 VD2 VIN+ V_source GNDA sky130_fd_pr__nfet_01v8 ad=0.3 pd=1.9 as=0.3 ps=1.9 w=1.5 l=0.15
X196 V_CMFB_S1 X GNDA VDDA sky130_fd_pr__pfet_01v8 ad=0.4 pd=2.4 as=0.4 ps=2.4 w=2 l=0.15
X197 VOUT- VDDA VDDA VDDA sky130_fd_pr__pfet_01v8 ad=1.2 pd=6.4 as=2.4 ps=12.8 w=6 l=0.15
X198 V_CMFB_S3 Y GNDA VDDA sky130_fd_pr__pfet_01v8 ad=0.4 pd=2.4 as=0.4 ps=2.4 w=2 l=0.15
X199 VOUT- cap_res_X sky130_fd_pr__cap_mim_m3_1 l=2 w=2
X200 VD1 VIN- V_source GNDA sky130_fd_pr__nfet_01v8 ad=0.3 pd=1.9 as=0.3 ps=1.9 w=1.5 l=0.15
X201 VDDA Vb3 VD3 VDDA sky130_fd_pr__pfet_01v8 ad=0.7 pd=3.9 as=0.7 ps=3.9 w=3.5 l=0.2
X202 V_err_gate V_err_amp_ref V_err_mir_p VDDA sky130_fd_pr__pfet_01v8 ad=0.1 pd=0.9 as=0.1 ps=0.9 w=0.5 l=0.15
X203 VOUT+ cap_res_Y sky130_fd_pr__cap_mim_m3_1 l=2 w=2
X204 VDDA VDDA Vb2 VDDA sky130_fd_pr__pfet_01v8 ad=0.252 pd=2.06 as=0.126 ps=1.03 w=0.63 l=0.2
X205 Y Vb1 VD2 GNDA sky130_fd_pr__nfet_01v8 ad=0.3 pd=1.9 as=0.3 ps=1.9 w=1.5 l=0.15
X206 VOUT- cap_res_X sky130_fd_pr__cap_mim_m3_1 l=2 w=2
X207 Y Vb1 VD2 GNDA sky130_fd_pr__nfet_01v8 ad=0.3 pd=1.9 as=0.3 ps=1.9 w=1.5 l=0.15
X208 VOUT+ cap_res_Y sky130_fd_pr__cap_mim_m3_1 l=2 w=2
X209 VOUT+ cap_res_Y sky130_fd_pr__cap_mim_m3_1 l=2 w=2
X210 VOUT- cap_res_X sky130_fd_pr__cap_mim_m3_1 l=2 w=2
X211 VOUT- cap_res_X sky130_fd_pr__cap_mim_m3_1 l=2 w=2
X212 VOUT+ cap_res_Y sky130_fd_pr__cap_mim_m3_1 l=2 w=2
X213 VOUT- cap_res_X sky130_fd_pr__cap_mim_m3_1 l=2 w=2
X214 VOUT+ cap_res_Y sky130_fd_pr__cap_mim_m3_1 l=2 w=2
X215 VD4 Vb2 Y VD4 sky130_fd_pr__pfet_01v8 ad=0.7 pd=3.9 as=0.7 ps=3.9 w=3.5 l=0.2
X216 VDDA X V_CMFB_S2 GNDA sky130_fd_pr__nfet_01v8 ad=0.6 pd=3.4 as=0.6 ps=3.4 w=3 l=0.15
X217 VOUT- cap_res_X sky130_fd_pr__cap_mim_m3_1 l=2 w=2
X218 VOUT- cap_res_X sky130_fd_pr__cap_mim_m3_1 l=2 w=2
X219 GNDA V_tail_gate V_source GNDA sky130_fd_pr__nfet_01v8 ad=0.5 pd=2.9 as=0.5 ps=2.9 w=2.5 l=0.15
X220 cap_res_X X GNDA sky130_fd_pr__res_high_po_1p41 l=1.41
X221 VDDA X VOUT- VDDA sky130_fd_pr__pfet_01v8 ad=1.2 pd=6.4 as=1.2 ps=6.4 w=6 l=0.15
X222 VDDA Y VOUT+ VDDA sky130_fd_pr__pfet_01v8 ad=1.2 pd=6.4 as=1.2 ps=6.4 w=6 l=0.15
X223 VOUT+ a_109460_966# GNDA sky130_fd_pr__res_xhigh_po_0p35 l=2.63
X224 VOUT- cap_res_X sky130_fd_pr__cap_mim_m3_1 l=2 w=2
X225 VDDA VDDA VD3 VDDA sky130_fd_pr__pfet_01v8 ad=1.4 pd=7.8 as=0.7 ps=3.9 w=3.5 l=0.2
X226 VD3 Vb2 X VD3 sky130_fd_pr__pfet_01v8 ad=0.7 pd=3.9 as=0.7 ps=3.9 w=3.5 l=0.2
X227 VOUT+ cap_res_Y sky130_fd_pr__cap_mim_m3_1 l=2 w=2
X228 VOUT- cap_res_X sky130_fd_pr__cap_mim_m3_1 l=2 w=2
X229 a_109060_3958# V_CMFB_S3 GNDA sky130_fd_pr__res_xhigh_po_0p35 l=1.75
X230 VOUT+ cap_res_Y sky130_fd_pr__cap_mim_m3_1 l=2 w=2
X231 VOUT- cap_res_X sky130_fd_pr__cap_mim_m3_1 l=2 w=2
X232 VOUT- cap_res_X sky130_fd_pr__cap_mim_m3_1 l=2 w=2
X233 V_CMFB_S4 Y VDDA GNDA sky130_fd_pr__nfet_01v8 ad=0.6 pd=3.4 as=0.6 ps=3.4 w=3 l=0.15
X234 V_err_p V_err_gate VDDA VDDA sky130_fd_pr__pfet_01v8 ad=0.1 pd=0.9 as=0.1 ps=0.9 w=0.5 l=0.15
X235 VOUT+ cap_res_Y sky130_fd_pr__cap_mim_m3_1 l=2 w=2
X236 V_source V_tail_gate GNDA GNDA sky130_fd_pr__nfet_01v8 ad=0.5 pd=2.9 as=0.5 ps=2.9 w=2.5 l=0.15
X237 X Vb1 VD1 GNDA sky130_fd_pr__nfet_01v8 ad=0.3 pd=1.9 as=0.3 ps=1.9 w=1.5 l=0.15
X238 X Vb1 VD1 GNDA sky130_fd_pr__nfet_01v8 ad=0.3 pd=1.9 as=0.3 ps=1.9 w=1.5 l=0.15
X239 VDDA VDDA err_amp_out VDDA sky130_fd_pr__pfet_01v8 ad=0.2 pd=1.8 as=0.1 ps=0.9 w=0.5 l=0.15
X240 VD1 VIN- V_source GNDA sky130_fd_pr__nfet_01v8 ad=0.3 pd=1.9 as=0.3 ps=1.9 w=1.5 l=0.15
X241 V_CMFB_S1 X GNDA VDDA sky130_fd_pr__pfet_01v8 ad=0.4 pd=2.4 as=0.4 ps=2.4 w=2 l=0.15
X242 VDDA VDDA GNDA VDDA sky130_fd_pr__pfet_01v8 ad=0.8 pd=4.8 as=0.4 ps=2.4 w=2 l=0.15
X243 VDDA Vb3 VD4 VDDA sky130_fd_pr__pfet_01v8 ad=0.7 pd=3.9 as=0.7 ps=3.9 w=3.5 l=0.2
X244 V_CMFB_S3 Y GNDA VDDA sky130_fd_pr__pfet_01v8 ad=0.4 pd=2.4 as=0.4 ps=2.4 w=2 l=0.15
X245 VOUT- cap_res_X sky130_fd_pr__cap_mim_m3_1 l=2 w=2
X246 VOUT+ cap_res_Y sky130_fd_pr__cap_mim_m3_1 l=2 w=2
X247 VD1 VIN- V_source GNDA sky130_fd_pr__nfet_01v8 ad=0.3 pd=1.9 as=0.3 ps=1.9 w=1.5 l=0.15
X248 VOUT+ cap_res_Y sky130_fd_pr__cap_mim_m3_1 l=2 w=2
X249 VOUT+ cap_res_Y sky130_fd_pr__cap_mim_m3_1 l=2 w=2
X250 VD2 VIN+ V_source GNDA sky130_fd_pr__nfet_01v8 ad=0.3 pd=1.9 as=0.3 ps=1.9 w=1.5 l=0.15
X251 V_err_gate VDDA VDDA VDDA sky130_fd_pr__pfet_01v8 ad=0.1 pd=0.9 as=0.2 ps=1.8 w=0.5 l=0.15
X252 V_err_gate V_tot V_err_mir_p VDDA sky130_fd_pr__pfet_01v8 ad=0.1 pd=0.9 as=0.1 ps=0.9 w=0.5 l=0.15
X253 VOUT+ cap_res_Y sky130_fd_pr__cap_mim_m3_1 l=2 w=2
X254 VOUT+ cap_res_Y sky130_fd_pr__cap_mim_m3_1 l=2 w=2
X255 VOUT+ cap_res_Y sky130_fd_pr__cap_mim_m3_1 l=2 w=2
X256 Y Vb1 VD2 GNDA sky130_fd_pr__nfet_01v8 ad=0.3 pd=1.9 as=0.3 ps=1.9 w=1.5 l=0.15
X257 Vb2 Vb2 VDDA VDDA sky130_fd_pr__pfet_01v8 ad=0.126 pd=1.03 as=0.126 ps=1.03 w=0.63 l=0.2
X258 VOUT+ cap_res_Y sky130_fd_pr__cap_mim_m3_1 l=2 w=2
X259 VOUT- cap_res_X sky130_fd_pr__cap_mim_m3_1 l=2 w=2
X260 VDDA GNDA GNDA GNDA sky130_fd_pr__nfet_01v8 ad=0.6 pd=3.4 as=1.2 ps=6.8 w=3 l=0.15
X261 VD3 Vb2 X VD3 sky130_fd_pr__pfet_01v8 ad=0.7 pd=3.9 as=0.7 ps=3.9 w=3.5 l=0.2
X262 VDDA V_err_gate V_err_p VDDA sky130_fd_pr__pfet_01v8 ad=0.1 pd=0.9 as=0.1 ps=0.9 w=0.5 l=0.15
X263 Y VD4 VD4 VD4 sky130_fd_pr__pfet_01v8 ad=0.7 pd=3.9 as=1.4 ps=7.8 w=3.5 l=0.2
X264 GNDA V_tail_gate V_source GNDA sky130_fd_pr__nfet_01v8 ad=0.5 pd=2.9 as=0.5 ps=2.9 w=2.5 l=0.15
X265 V_source VIN- VD1 GNDA sky130_fd_pr__nfet_01v8 ad=0.3 pd=1.9 as=0.3 ps=1.9 w=1.5 l=0.15
X266 VDDA X VOUT- VDDA sky130_fd_pr__pfet_01v8 ad=1.2 pd=6.4 as=1.2 ps=6.4 w=6 l=0.15
X267 VOUT- cap_res_X sky130_fd_pr__cap_mim_m3_1 l=2 w=2
X268 VDDA VDDA VOUT- VDDA sky130_fd_pr__pfet_01v8 ad=2.4 pd=12.8 as=1.2 ps=6.4 w=6 l=0.15
X269 VOUT+ cap_res_Y sky130_fd_pr__cap_mim_m3_1 l=2 w=2
X270 VOUT- cap_res_X sky130_fd_pr__cap_mim_m3_1 l=2 w=2
X271 VOUT+ cap_res_Y sky130_fd_pr__cap_mim_m3_1 l=2 w=2
X272 VDDA Y VOUT+ VDDA sky130_fd_pr__pfet_01v8 ad=1.2 pd=6.4 as=1.2 ps=6.4 w=6 l=0.15
X273 VOUT- a_117950_966# GNDA sky130_fd_pr__res_xhigh_po_0p35 l=2.63
X274 VOUT+ cap_res_Y sky130_fd_pr__cap_mim_m3_1 l=2 w=2
X275 VOUT- cap_res_X sky130_fd_pr__cap_mim_m3_1 l=2 w=2
X276 VOUT+ cap_res_Y sky130_fd_pr__cap_mim_m3_1 l=2 w=2
X277 GNDA err_amp_mir err_amp_out GNDA sky130_fd_pr__nfet_01v8 ad=0.1 pd=0.9 as=0.1 ps=0.9 w=0.5 l=0.15
X278 VOUT+ cap_res_Y sky130_fd_pr__cap_mim_m3_1 l=2 w=2
X279 VOUT- cap_res_X sky130_fd_pr__cap_mim_m3_1 l=2 w=2
X280 VOUT+ cap_res_Y sky130_fd_pr__cap_mim_m3_1 l=2 w=2
X281 V_CMFB_S2 X VDDA GNDA sky130_fd_pr__nfet_01v8 ad=0.6 pd=3.4 as=0.6 ps=3.4 w=3 l=0.15
X282 VOUT+ cap_res_Y sky130_fd_pr__cap_mim_m3_1 l=2 w=2
X283 VDDA Vb3 VD4 VDDA sky130_fd_pr__pfet_01v8 ad=0.7 pd=3.9 as=0.7 ps=3.9 w=3.5 l=0.2
X284 V_CMFB_S4 Y VDDA GNDA sky130_fd_pr__nfet_01v8 ad=0.6 pd=3.4 as=0.6 ps=3.4 w=3 l=0.15
X285 VOUT+ cap_res_Y sky130_fd_pr__cap_mim_m3_1 l=2 w=2
X286 V_err_mir_p V_err_gate VDDA VDDA sky130_fd_pr__pfet_01v8 ad=0.1 pd=0.9 as=0.1 ps=0.9 w=0.5 l=0.15
X287 VD3 Vb2 X VD3 sky130_fd_pr__pfet_01v8 ad=0.7 pd=3.9 as=0.7 ps=3.9 w=3.5 l=0.2
X288 VOUT+ cap_res_Y sky130_fd_pr__cap_mim_m3_1 l=2 w=2
X289 VOUT+ cap_res_Y sky130_fd_pr__cap_mim_m3_1 l=2 w=2
X290 VOUT- cap_res_X sky130_fd_pr__cap_mim_m3_1 l=2 w=2
X291 VOUT+ cap_res_Y sky130_fd_pr__cap_mim_m3_1 l=2 w=2
X292 V_p_mir V_tail_gate GNDA GNDA sky130_fd_pr__nfet_01v8 ad=0.5 pd=2.9 as=0.5 ps=2.9 w=2.5 l=0.15
X293 VOUT+ cap_res_Y sky130_fd_pr__cap_mim_m3_1 l=2 w=2
X294 X Vb1 VD1 GNDA sky130_fd_pr__nfet_01v8 ad=0.3 pd=1.9 as=0.3 ps=1.9 w=1.5 l=0.15
X295 V_err_p V_tot err_amp_mir VDDA sky130_fd_pr__pfet_01v8 ad=0.1 pd=0.9 as=0.1 ps=0.9 w=0.5 l=0.15
X296 VOUT+ cap_res_Y sky130_fd_pr__cap_mim_m3_1 l=2 w=2
X297 VD3 Vb3 VDDA VDDA sky130_fd_pr__pfet_01v8 ad=0.7 pd=3.9 as=0.7 ps=3.9 w=3.5 l=0.2
X298 VD2 GNDA GNDA GNDA sky130_fd_pr__nfet_01v8 ad=0.3 pd=1.9 as=0.6 ps=3.8 w=1.5 l=0.15
X299 V_CMFB_S1 X GNDA VDDA sky130_fd_pr__pfet_01v8 ad=0.4 pd=2.4 as=0.4 ps=2.4 w=2 l=0.15
X300 VOUT+ cap_res_Y sky130_fd_pr__cap_mim_m3_1 l=2 w=2
X301 VD2 VIN+ V_source GNDA sky130_fd_pr__nfet_01v8 ad=0.3 pd=1.9 as=0.3 ps=1.9 w=1.5 l=0.15
X302 VOUT- cap_res_X sky130_fd_pr__cap_mim_m3_1 l=2 w=2
X303 err_amp_mir err_amp_mir GNDA GNDA sky130_fd_pr__nfet_01v8 ad=0.1 pd=0.9 as=0.1 ps=0.9 w=0.5 l=0.15
X304 VOUT+ cap_res_Y sky130_fd_pr__cap_mim_m3_1 l=2 w=2
X305 VOUT- cap_res_X sky130_fd_pr__cap_mim_m3_1 l=2 w=2
X306 Y Vb2 VD4 VD4 sky130_fd_pr__pfet_01v8 ad=0.7 pd=3.9 as=0.7 ps=3.9 w=3.5 l=0.2
X307 Y Vb1 VD2 GNDA sky130_fd_pr__nfet_01v8 ad=0.3 pd=1.9 as=0.3 ps=1.9 w=1.5 l=0.15
X308 VOUT+ cap_res_Y sky130_fd_pr__cap_mim_m3_1 l=2 w=2
X309 VOUT- cap_res_X sky130_fd_pr__cap_mim_m3_1 l=2 w=2
X310 VOUT+ cap_res_Y sky130_fd_pr__cap_mim_m3_1 l=2 w=2
X311 VOUT- cap_res_X sky130_fd_pr__cap_mim_m3_1 l=2 w=2
X312 VOUT- cap_res_X sky130_fd_pr__cap_mim_m3_1 l=2 w=2
X313 X Vb2 VD3 VD3 sky130_fd_pr__pfet_01v8 ad=0.7 pd=3.9 as=0.7 ps=3.9 w=3.5 l=0.2
X314 VDDA X VOUT- VDDA sky130_fd_pr__pfet_01v8 ad=1.2 pd=6.4 as=1.2 ps=6.4 w=6 l=0.15
X315 VOUT- cap_res_X sky130_fd_pr__cap_mim_m3_1 l=2 w=2
X316 VOUT- cap_res_X sky130_fd_pr__cap_mim_m3_1 l=2 w=2
X317 VDDA VDDA V_err_gate VDDA sky130_fd_pr__pfet_01v8 ad=0.2 pd=1.8 as=0.1 ps=0.9 w=0.5 l=0.15
X318 VOUT+ cap_res_Y sky130_fd_pr__cap_mim_m3_1 l=2 w=2
X319 VOUT- cap_res_X sky130_fd_pr__cap_mim_m3_1 l=2 w=2
X320 Y Vb2 VD4 VD4 sky130_fd_pr__pfet_01v8 ad=0.7 pd=3.9 as=0.7 ps=3.9 w=3.5 l=0.2
X321 VOUT- cap_res_X sky130_fd_pr__cap_mim_m3_1 l=2 w=2
X322 VOUT+ cap_res_Y sky130_fd_pr__cap_mim_m3_1 l=2 w=2
X323 VOUT+ cap_res_Y sky130_fd_pr__cap_mim_m3_1 l=2 w=2
X324 VOUT+ cap_res_Y sky130_fd_pr__cap_mim_m3_1 l=2 w=2
X325 VOUT+ cap_res_Y sky130_fd_pr__cap_mim_m3_1 l=2 w=2
X326 GNDA GNDA VDDA GNDA sky130_fd_pr__nfet_01v8 ad=1.2 pd=6.8 as=0.6 ps=3.4 w=3 l=0.15
X327 V_CMFB_S2 X VDDA GNDA sky130_fd_pr__nfet_01v8 ad=0.6 pd=3.4 as=0.6 ps=3.4 w=3 l=0.15
X328 V_CMFB_S4 Y VDDA GNDA sky130_fd_pr__nfet_01v8 ad=0.6 pd=3.4 as=0.6 ps=3.4 w=3 l=0.15
X329 VOUT+ cap_res_Y sky130_fd_pr__cap_mim_m3_1 l=2 w=2
X330 VOUT- cap_res_X sky130_fd_pr__cap_mim_m3_1 l=2 w=2
X331 VOUT+ cap_res_Y sky130_fd_pr__cap_mim_m3_1 l=2 w=2
X332 V_err_p V_err_gate VDDA VDDA sky130_fd_pr__pfet_01v8 ad=0.1 pd=0.9 as=0.1 ps=0.9 w=0.5 l=0.15
X333 V_err_p V_err_gate VDDA VDDA sky130_fd_pr__pfet_01v8 ad=0.1 pd=0.9 as=0.1 ps=0.9 w=0.5 l=0.15
X334 VOUT- cap_res_X sky130_fd_pr__cap_mim_m3_1 l=2 w=2
X335 VOUT- cap_res_X sky130_fd_pr__cap_mim_m3_1 l=2 w=2
X336 V_source V_tail_gate GNDA GNDA sky130_fd_pr__nfet_01v8 ad=0.5 pd=2.9 as=0.5 ps=2.9 w=2.5 l=0.15
X337 X Vb1 VD1 GNDA sky130_fd_pr__nfet_01v8 ad=0.3 pd=1.9 as=0.3 ps=1.9 w=1.5 l=0.15
X338 V_CMFB_S1 X GNDA VDDA sky130_fd_pr__pfet_01v8 ad=0.4 pd=2.4 as=0.4 ps=2.4 w=2 l=0.15
X339 VD1 VIN- V_source GNDA sky130_fd_pr__nfet_01v8 ad=0.3 pd=1.9 as=0.3 ps=1.9 w=1.5 l=0.15
X340 err_amp_out err_amp_mir GNDA GNDA sky130_fd_pr__nfet_01v8 ad=0.1 pd=0.9 as=0.1 ps=0.9 w=0.5 l=0.15
X341 VOUT+ cap_res_Y sky130_fd_pr__cap_mim_m3_1 l=2 w=2
X342 VOUT+ cap_res_Y sky130_fd_pr__cap_mim_m3_1 l=2 w=2
X343 Y GNDA GNDA GNDA sky130_fd_pr__nfet_01v8 ad=0.3 pd=1.9 as=0.6 ps=3.8 w=1.5 l=0.15
X344 VOUT- cap_res_X sky130_fd_pr__cap_mim_m3_1 l=2 w=2
X345 VOUT- cap_res_X sky130_fd_pr__cap_mim_m3_1 l=2 w=2
X346 VOUT- cap_res_X sky130_fd_pr__cap_mim_m3_1 l=2 w=2
X347 VOUT+ cap_res_Y sky130_fd_pr__cap_mim_m3_1 l=2 w=2
X348 VOUT- cap_res_X sky130_fd_pr__cap_mim_m3_1 l=2 w=2
X349 X Vb2 VD3 VD3 sky130_fd_pr__pfet_01v8 ad=0.7 pd=3.9 as=0.7 ps=3.9 w=3.5 l=0.2
X350 VOUT+ cap_res_Y sky130_fd_pr__cap_mim_m3_1 l=2 w=2
X351 VDDA VDDA V_err_p VDDA sky130_fd_pr__pfet_01v8 ad=0.2 pd=1.8 as=0.1 ps=0.9 w=0.5 l=0.15
X352 VOUT- cap_res_X sky130_fd_pr__cap_mim_m3_1 l=2 w=2
X353 VOUT+ cap_res_Y sky130_fd_pr__cap_mim_m3_1 l=2 w=2
X354 VOUT- cap_res_X sky130_fd_pr__cap_mim_m3_1 l=2 w=2
X355 VOUT- cap_res_X sky130_fd_pr__cap_mim_m3_1 l=2 w=2
X356 VD1 Vb1 X GNDA sky130_fd_pr__nfet_01v8 ad=0.3 pd=1.9 as=0.3 ps=1.9 w=1.5 l=0.15
X357 VOUT- cap_res_X sky130_fd_pr__cap_mim_m3_1 l=2 w=2
X358 GNDA V_tail_gate V_source GNDA sky130_fd_pr__nfet_01v8 ad=0.5 pd=2.9 as=0.5 ps=2.9 w=2.5 l=0.15
X359 GNDA Y V_CMFB_S3 VDDA sky130_fd_pr__pfet_01v8 ad=0.4 pd=2.4 as=0.4 ps=2.4 w=2 l=0.15
X360 GNDA GNDA VOUT- GNDA sky130_fd_pr__nfet_01v8 ad=2.8 pd=14.8 as=1.4 ps=7.4 w=7 l=0.6
X361 GNDA GNDA VD1 GNDA sky130_fd_pr__nfet_01v8 ad=0.6 pd=3.8 as=0.3 ps=1.9 w=1.5 l=0.15
X362 VDDA X VOUT- VDDA sky130_fd_pr__pfet_01v8 ad=1.2 pd=6.4 as=1.2 ps=6.4 w=6 l=0.15
X363 VOUT- cap_res_X sky130_fd_pr__cap_mim_m3_1 l=2 w=2
X364 VOUT- cap_res_X sky130_fd_pr__cap_mim_m3_1 l=2 w=2
X365 V_err_mir_p V_err_amp_ref V_err_gate VDDA sky130_fd_pr__pfet_01v8 ad=0.1 pd=0.9 as=0.1 ps=0.9 w=0.5 l=0.15
X366 V_err_mir_p V_tot V_err_gate VDDA sky130_fd_pr__pfet_01v8 ad=0.1 pd=0.9 as=0.1 ps=0.9 w=0.5 l=0.15
X367 VOUT- cap_res_X sky130_fd_pr__cap_mim_m3_1 l=2 w=2
X368 VOUT- cap_res_X sky130_fd_pr__cap_mim_m3_1 l=2 w=2
X369 VD4 Vb3 VDDA VDDA sky130_fd_pr__pfet_01v8 ad=0.7 pd=3.9 as=0.7 ps=3.9 w=3.5 l=0.2
X370 VOUT- cap_res_X sky130_fd_pr__cap_mim_m3_1 l=2 w=2
X371 VOUT- cap_res_X sky130_fd_pr__cap_mim_m3_1 l=2 w=2
X372 VOUT- cap_res_X sky130_fd_pr__cap_mim_m3_1 l=2 w=2
X373 X Vb2 VD3 VD3 sky130_fd_pr__pfet_01v8 ad=0.7 pd=3.9 as=0.7 ps=3.9 w=3.5 l=0.2
X374 VOUT- cap_res_X sky130_fd_pr__cap_mim_m3_1 l=2 w=2
X375 VOUT- cap_res_X sky130_fd_pr__cap_mim_m3_1 l=2 w=2
X376 VOUT- cap_res_X sky130_fd_pr__cap_mim_m3_1 l=2 w=2
X377 VD4 VDDA VDDA VDDA sky130_fd_pr__pfet_01v8 ad=0.7 pd=3.9 as=1.4 ps=7.8 w=3.5 l=0.2
X378 VOUT- cap_res_X sky130_fd_pr__cap_mim_m3_1 l=2 w=2
X379 V_CMFB_S2 X VDDA GNDA sky130_fd_pr__nfet_01v8 ad=0.6 pd=3.4 as=0.6 ps=3.4 w=3 l=0.15
X380 V_err_mir_p V_err_gate VDDA VDDA sky130_fd_pr__pfet_01v8 ad=0.1 pd=0.9 as=0.1 ps=0.9 w=0.5 l=0.15
X381 VOUT- cap_res_X sky130_fd_pr__cap_mim_m3_1 l=2 w=2
X382 V_err_p V_err_amp_ref err_amp_out VDDA sky130_fd_pr__pfet_01v8 ad=0.1 pd=0.9 as=0.1 ps=0.9 w=0.5 l=0.15
X383 VOUT+ cap_res_Y sky130_fd_pr__cap_mim_m3_1 l=2 w=2
X384 GNDA V_b_2nd_stage VOUT+ GNDA sky130_fd_pr__nfet_01v8 ad=1.4 pd=7.4 as=1.4 ps=7.4 w=7 l=0.6
X385 X GNDA GNDA GNDA sky130_fd_pr__nfet_01v8 ad=0.3 pd=1.9 as=0.6 ps=3.8 w=1.5 l=0.15
X386 VOUT+ Y VDDA VDDA sky130_fd_pr__pfet_01v8 ad=1.2 pd=6.4 as=1.2 ps=6.4 w=6 l=0.15
X387 V_source V_tail_gate GNDA GNDA sky130_fd_pr__nfet_01v8 ad=0.5 pd=2.9 as=0.5 ps=2.9 w=2.5 l=0.15
X388 VOUT+ cap_res_Y sky130_fd_pr__cap_mim_m3_1 l=2 w=2
X389 VOUT- cap_res_X sky130_fd_pr__cap_mim_m3_1 l=2 w=2
X390 VD2 GNDA GNDA GNDA sky130_fd_pr__nfet_01v8 ad=0.3 pd=1.9 as=0.6 ps=3.8 w=1.5 l=0.15
X391 VD4 Vb2 Y VD4 sky130_fd_pr__pfet_01v8 ad=0.7 pd=3.9 as=0.7 ps=3.9 w=3.5 l=0.2
X392 VOUT+ cap_res_Y sky130_fd_pr__cap_mim_m3_1 l=2 w=2
X393 VOUT- cap_res_X sky130_fd_pr__cap_mim_m3_1 l=2 w=2
X394 err_amp_mir err_amp_mir GNDA GNDA sky130_fd_pr__nfet_01v8 ad=0.1 pd=0.9 as=0.1 ps=0.9 w=0.5 l=0.15
X395 err_amp_mir err_amp_mir GNDA GNDA sky130_fd_pr__nfet_01v8 ad=0.1 pd=0.9 as=0.1 ps=0.9 w=0.5 l=0.15
X396 VOUT- cap_res_X sky130_fd_pr__cap_mim_m3_1 l=2 w=2
X397 VOUT- cap_res_X sky130_fd_pr__cap_mim_m3_1 l=2 w=2
X398 VOUT+ cap_res_Y sky130_fd_pr__cap_mim_m3_1 l=2 w=2
X399 VOUT+ cap_res_Y sky130_fd_pr__cap_mim_m3_1 l=2 w=2
X400 GNDA V_b_2nd_stage VOUT+ GNDA sky130_fd_pr__nfet_01v8 ad=1.4 pd=7.4 as=1.4 ps=7.4 w=7 l=0.6