* PEX produced on Thu Aug  7 12:18:39 PM CEST 2025 using /foss/tools/osic-multitool/iic-pex.sh with m=3 and s=1
* NGSPICE file created from two_stage_opamp_dummy_magic_24.ext - technology: sky130A

.subckt two_stage_opamp_dummy_magic_24 V_CMFB_S1 V_CMFB_S3 Vb3 Vb2 V_CMFB_S2 V_CMFB_S4
+ VOUT- VOUT+ V_tail_gate V_err_amp_ref V_err_gate
X0 VOUT-.t15 X.t25 w_109060_7290.t106 w_109060_7290.t105 sky130_fd_pr__pfet_01v8 ad=1.2 pd=6.4 as=1.2 ps=6.4 w=6 l=0.15
X1 VOUT-.t1 V_b_2nd_stage.t2 a_109160_2280.t125 a_109160_2280.t124 sky130_fd_pr__nfet_01v8 ad=1.4 pd=7.4 as=1.4 ps=7.4 w=7 l=0.6
X2 VOUT+.t19 cap_res_Y.t138 sky130_fd_pr__cap_mim_m3_1 l=2 w=2
X3 VOUT+.t20 cap_res_Y.t137 sky130_fd_pr__cap_mim_m3_1 l=2 w=2
X4 w_109060_7290.t104 X.t26 V_CMFB_S2.t10 a_109160_2280.t109 sky130_fd_pr__nfet_01v8 ad=0.6 pd=3.4 as=0.6 ps=3.4 w=3 l=0.15
X5 VOUT-.t19 cap_res_X.t138 sky130_fd_pr__cap_mim_m3_1 l=2 w=2
X6 VOUT-.t20 cap_res_X.t137 sky130_fd_pr__cap_mim_m3_1 l=2 w=2
X7 VOUT-.t21 cap_res_X.t136 sky130_fd_pr__cap_mim_m3_1 l=2 w=2
X8 w_109060_7290.t28 Vb3.t2 VD4.t25 w_109060_7290.t27 sky130_fd_pr__pfet_01v8 ad=0.7 pd=3.9 as=0.7 ps=3.9 w=3.5 l=0.2
X9 V_source.t19 V_tail_gate.t4 a_109160_2280.t26 a_109160_2280.t25 sky130_fd_pr__nfet_01v8 ad=0.5 pd=2.9 as=0.5 ps=2.9 w=2.5 l=0.15
X10 VD1.t18 VIN- V_source.t30 a_109160_2280.t206 sky130_fd_pr__nfet_01v8 ad=0.3 pd=1.9 as=0.3 ps=1.9 w=1.5 l=0.15
X11 VOUT+.t21 cap_res_Y.t136 sky130_fd_pr__cap_mim_m3_1 l=2 w=2
X12 VOUT-.t22 cap_res_X.t135 sky130_fd_pr__cap_mim_m3_1 l=2 w=2
X13 a_109160_2280.t228 V_tail_gate.t5 V_source.t18 a_109160_2280.t227 sky130_fd_pr__nfet_01v8 ad=0.5 pd=2.9 as=0.5 ps=2.9 w=2.5 l=0.15
X14 VD3.t35 Vb2.t3 X.t6 VD3.t34 sky130_fd_pr__pfet_01v8 ad=0.7 pd=3.9 as=0.7 ps=3.9 w=3.5 l=0.2
X15 VOUT-.t2 V_b_2nd_stage.t3 a_109160_2280.t123 a_109160_2280.t122 sky130_fd_pr__nfet_01v8 ad=1.4 pd=7.4 as=1.4 ps=7.4 w=7 l=0.6
X16 V_err_mir_p.t2 V_err_amp_ref.t0 V_err_gate.t0 w_109060_7290.t32 sky130_fd_pr__pfet_01v8 ad=0.5 pd=2.9 as=0.5 ps=2.9 w=2.5 l=0.15
X17 err_amp_mir.t3 w_109060_7290.t176 w_109060_7290.t178 w_109060_7290.t177 sky130_fd_pr__pfet_01v8 ad=0.5 pd=2.9 as=1 ps=5.8 w=2.5 l=0.15
X18 VOUT+.t22 cap_res_Y.t135 sky130_fd_pr__cap_mim_m3_1 l=2 w=2
X19 VOUT+.t23 cap_res_Y.t134 sky130_fd_pr__cap_mim_m3_1 l=2 w=2
X20 VOUT+.t24 cap_res_Y.t133 sky130_fd_pr__cap_mim_m3_1 l=2 w=2
X21 VOUT+.t25 cap_res_Y.t132 sky130_fd_pr__cap_mim_m3_1 l=2 w=2
X22 a_109160_2280.t196 a_109160_2280.t193 a_109160_2280.t195 a_109160_2280.t194 sky130_fd_pr__nfet_01v8 ad=1 pd=5.8 as=0 ps=0 w=2.5 l=0.15
X23 VOUT+.t26 cap_res_Y.t131 sky130_fd_pr__cap_mim_m3_1 l=2 w=2
X24 VOUT+.t27 cap_res_Y.t130 sky130_fd_pr__cap_mim_m3_1 l=2 w=2
X25 VOUT-.t23 cap_res_X.t134 sky130_fd_pr__cap_mim_m3_1 l=2 w=2
X26 VOUT+.t13 w_109060_7290.t173 w_109060_7290.t175 w_109060_7290.t174 sky130_fd_pr__pfet_01v8 ad=1.2 pd=6.4 as=2.4 ps=12.8 w=6 l=0.15
X27 VOUT-.t24 cap_res_X.t133 sky130_fd_pr__cap_mim_m3_1 l=2 w=2
X28 VOUT+.t28 cap_res_Y.t129 sky130_fd_pr__cap_mim_m3_1 l=2 w=2
X29 VOUT-.t25 cap_res_X.t132 sky130_fd_pr__cap_mim_m3_1 l=2 w=2
X30 a_109160_2280.t192 a_109160_2280.t190 VD2.t9 a_109160_2280.t191 sky130_fd_pr__nfet_01v8 ad=0.6 pd=3.8 as=0.3 ps=1.9 w=1.5 l=0.15
X31 VOUT-.t26 cap_res_X.t131 sky130_fd_pr__cap_mim_m3_1 l=2 w=2
X32 VOUT+.t29 cap_res_Y.t128 sky130_fd_pr__cap_mim_m3_1 l=2 w=2
X33 V_source.t17 V_tail_gate.t6 a_109160_2280.t2 a_109160_2280.t1 sky130_fd_pr__nfet_01v8 ad=0.5 pd=2.9 as=0.5 ps=2.9 w=2.5 l=0.15
X34 VOUT+.t30 cap_res_Y.t127 sky130_fd_pr__cap_mim_m3_1 l=2 w=2
X35 w_109060_7290.t172 w_109060_7290.t170 VOUT+.t12 w_109060_7290.t171 sky130_fd_pr__pfet_01v8 ad=2.4 pd=12.8 as=1.2 ps=6.4 w=6 l=0.15
X36 VOUT-.t27 cap_res_X.t130 sky130_fd_pr__cap_mim_m3_1 l=2 w=2
X37 Y.t18 Vb2.t4 VD4.t13 VD4.t12 sky130_fd_pr__pfet_01v8 ad=0.7 pd=3.9 as=0.7 ps=3.9 w=3.5 l=0.2
X38 V_CMFB_S3.t10 Y.t25 a_109160_2280.t81 w_109060_7290.t62 sky130_fd_pr__pfet_01v8 ad=0.4 pd=2.4 as=0.4 ps=2.4 w=2 l=0.15
X39 VD1.t21 Vb1.t10 X.t24 a_109160_2280.t232 sky130_fd_pr__nfet_01v8 ad=0.3 pd=1.9 as=0.3 ps=1.9 w=1.5 l=0.15
X40 VOUT+.t31 cap_res_Y.t126 sky130_fd_pr__cap_mim_m3_1 l=2 w=2
X41 a_109160_2280.t67 V_tail_gate.t7 V_source.t16 a_109160_2280.t66 sky130_fd_pr__nfet_01v8 ad=0.5 pd=2.9 as=0.5 ps=2.9 w=2.5 l=0.15
X42 VOUT+.t32 cap_res_Y.t125 sky130_fd_pr__cap_mim_m3_1 l=2 w=2
X43 VOUT+.t33 cap_res_Y.t124 sky130_fd_pr__cap_mim_m3_1 l=2 w=2
X44 VOUT+.t34 cap_res_Y.t123 sky130_fd_pr__cap_mim_m3_1 l=2 w=2
X45 VOUT+.t35 cap_res_Y.t122 sky130_fd_pr__cap_mim_m3_1 l=2 w=2
X46 X.t8 Vb2.t5 VD3.t33 VD3.t32 sky130_fd_pr__pfet_01v8 ad=0.7 pd=3.9 as=0.7 ps=3.9 w=3.5 l=0.2
X47 VOUT-.t28 cap_res_X.t129 sky130_fd_pr__cap_mim_m3_1 l=2 w=2
X48 VOUT+.t36 cap_res_Y.t121 sky130_fd_pr__cap_mim_m3_1 l=2 w=2
X49 VOUT-.t29 cap_res_X.t128 sky130_fd_pr__cap_mim_m3_1 l=2 w=2
X50 a_109160_2280.t108 X.t27 V_CMFB_S1.t10 w_109060_7290.t103 sky130_fd_pr__pfet_01v8 ad=0.4 pd=2.4 as=0.4 ps=2.4 w=2 l=0.15
X51 VOUT-.t30 cap_res_X.t127 sky130_fd_pr__cap_mim_m3_1 l=2 w=2
X52 VOUT-.t31 cap_res_X.t126 sky130_fd_pr__cap_mim_m3_1 l=2 w=2
X53 w_109060_7290.t102 X.t28 V_CMFB_S2.t9 a_109160_2280.t107 sky130_fd_pr__nfet_01v8 ad=0.6 pd=3.4 as=0.6 ps=3.4 w=3 l=0.15
X54 Y.t17 Vb2.t6 VD4.t7 VD4.t6 sky130_fd_pr__pfet_01v8 ad=0.7 pd=3.9 as=0.7 ps=3.9 w=3.5 l=0.2
X55 Y.t2 Vb1.t11 VD2.t2 a_109160_2280.t17 sky130_fd_pr__nfet_01v8 ad=0.3 pd=1.9 as=0.3 ps=1.9 w=1.5 l=0.15
X56 VOUT+.t37 cap_res_Y.t120 sky130_fd_pr__cap_mim_m3_1 l=2 w=2
X57 VD4.t24 Vb3.t3 w_109060_7290.t53 w_109060_7290.t52 sky130_fd_pr__pfet_01v8 ad=0.7 pd=3.9 as=0.7 ps=3.9 w=3.5 l=0.2
X58 VOUT+.t38 cap_res_Y.t119 sky130_fd_pr__cap_mim_m3_1 l=2 w=2
X59 VD1.t8 a_109160_2280.t187 a_109160_2280.t189 a_109160_2280.t188 sky130_fd_pr__nfet_01v8 ad=0.3 pd=1.9 as=0.6 ps=3.8 w=1.5 l=0.15
X60 VOUT+.t39 cap_res_Y.t118 sky130_fd_pr__cap_mim_m3_1 l=2 w=2
X61 VOUT+.t40 cap_res_Y.t117 sky130_fd_pr__cap_mim_m3_1 l=2 w=2
X62 VOUT+.t41 cap_res_Y.t116 sky130_fd_pr__cap_mim_m3_1 l=2 w=2
X63 VOUT+.t42 cap_res_Y.t115 sky130_fd_pr__cap_mim_m3_1 l=2 w=2
X64 VOUT-.t32 cap_res_X.t125 sky130_fd_pr__cap_mim_m3_1 l=2 w=2
X65 VOUT-.t33 cap_res_X.t124 sky130_fd_pr__cap_mim_m3_1 l=2 w=2
X66 VOUT-.t34 cap_res_X.t123 sky130_fd_pr__cap_mim_m3_1 l=2 w=2
X67 VOUT-.t35 cap_res_X.t122 sky130_fd_pr__cap_mim_m3_1 l=2 w=2
X68 VOUT-.t36 cap_res_X.t121 sky130_fd_pr__cap_mim_m3_1 l=2 w=2
X69 VOUT-.t37 cap_res_X.t120 sky130_fd_pr__cap_mim_m3_1 l=2 w=2
X70 VOUT+.t43 cap_res_Y.t114 sky130_fd_pr__cap_mim_m3_1 l=2 w=2
X71 VOUT-.t38 cap_res_X.t119 sky130_fd_pr__cap_mim_m3_1 l=2 w=2
X72 V_CMFB_S2.t8 X.t29 w_109060_7290.t95 a_109160_2280.t106 sky130_fd_pr__nfet_01v8 ad=0.6 pd=3.4 as=0.6 ps=3.4 w=3 l=0.15
X73 VOUT+.t44 cap_res_Y.t113 sky130_fd_pr__cap_mim_m3_1 l=2 w=2
X74 V_tail_gate.t2 VIN- V_p_mir.t2 a_109160_2280.t18 sky130_fd_pr__nfet_01v8 ad=0.3 pd=1.9 as=0.3 ps=1.9 w=1.5 l=0.15
X75 V_source.t38 VIN+ VD2.t19 a_109160_2280.t220 sky130_fd_pr__nfet_01v8 ad=0.3 pd=1.9 as=0.3 ps=1.9 w=1.5 l=0.15
X76 VOUT-.t39 cap_res_X.t118 sky130_fd_pr__cap_mim_m3_1 l=2 w=2
X77 w_109060_7290.t190 Y.t26 VOUT+.t16 w_109060_7290.t189 sky130_fd_pr__pfet_01v8 ad=1.2 pd=6.4 as=1.2 ps=6.4 w=6 l=0.15
X78 VOUT+.t45 cap_res_Y.t112 sky130_fd_pr__cap_mim_m3_1 l=2 w=2
X79 VOUT+.t46 cap_res_Y.t111 sky130_fd_pr__cap_mim_m3_1 l=2 w=2
X80 VD3.t15 Vb3.t4 w_109060_7290.t1 w_109060_7290.t0 sky130_fd_pr__pfet_01v8 ad=0.7 pd=3.9 as=0.7 ps=3.9 w=3.5 l=0.2
X81 X.t0 Vb2.t7 VD3.t31 VD3.t30 sky130_fd_pr__pfet_01v8 ad=0.7 pd=3.9 as=0.7 ps=3.9 w=3.5 l=0.2
X82 VOUT-.t40 cap_res_X.t117 sky130_fd_pr__cap_mim_m3_1 l=2 w=2
X83 VOUT+.t47 cap_res_Y.t110 sky130_fd_pr__cap_mim_m3_1 l=2 w=2
X84 VOUT+.t48 cap_res_Y.t109 sky130_fd_pr__cap_mim_m3_1 l=2 w=2
X85 VOUT-.t41 cap_res_X.t116 sky130_fd_pr__cap_mim_m3_1 l=2 w=2
X86 a_109160_2280.t186 a_109160_2280.t184 Vb1.t9 a_109160_2280.t185 sky130_fd_pr__nfet_01v8 ad=0.6 pd=3.8 as=0.3 ps=1.9 w=1.5 l=0.15
X87 VOUT-.t42 cap_res_X.t115 sky130_fd_pr__cap_mim_m3_1 l=2 w=2
X88 VOUT-.t43 cap_res_X.t114 sky130_fd_pr__cap_mim_m3_1 l=2 w=2
X89 VOUT-.t14 X.t30 w_109060_7290.t101 w_109060_7290.t100 sky130_fd_pr__pfet_01v8 ad=1.2 pd=6.4 as=1.2 ps=6.4 w=6 l=0.15
X90 VOUT+.t49 cap_res_Y.t108 sky130_fd_pr__cap_mim_m3_1 l=2 w=2
X91 VOUT+.t50 cap_res_Y.t107 sky130_fd_pr__cap_mim_m3_1 l=2 w=2
X92 a_109160_2280.t105 X.t31 V_CMFB_S1.t9 w_109060_7290.t99 sky130_fd_pr__pfet_01v8 ad=0.4 pd=2.4 as=0.4 ps=2.4 w=2 l=0.15
X93 VOUT+.t51 cap_res_Y.t106 sky130_fd_pr__cap_mim_m3_1 l=2 w=2
X94 VD4.t23 Vb3.t5 w_109060_7290.t108 w_109060_7290.t107 sky130_fd_pr__pfet_01v8 ad=0.7 pd=3.9 as=0.7 ps=3.9 w=3.5 l=0.2
X95 VOUT-.t44 cap_res_X.t113 sky130_fd_pr__cap_mim_m3_1 l=2 w=2
X96 VOUT-.t45 cap_res_X.t112 sky130_fd_pr__cap_mim_m3_1 l=2 w=2
X97 VOUT+.t52 cap_res_Y.t105 sky130_fd_pr__cap_mim_m3_1 l=2 w=2
X98 V_CMFB_S4.t10 Y.t27 w_109060_7290.t35 a_109160_2280.t38 sky130_fd_pr__nfet_01v8 ad=0.6 pd=3.4 as=0.6 ps=3.4 w=3 l=0.15
X99 w_109060_7290.t200 a_109160_2280.t181 a_109160_2280.t183 a_109160_2280.t182 sky130_fd_pr__nfet_01v8 ad=0.6 pd=3.4 as=1.2 ps=6.8 w=3 l=0.15
X100 Y.t23 Vb1.t12 VD2.t20 a_109160_2280.t226 sky130_fd_pr__nfet_01v8 ad=0.3 pd=1.9 as=0.3 ps=1.9 w=1.5 l=0.15
X101 VOUT-.t46 cap_res_X.t111 sky130_fd_pr__cap_mim_m3_1 l=2 w=2
X102 VOUT-.t47 cap_res_X.t110 sky130_fd_pr__cap_mim_m3_1 l=2 w=2
X103 X.t17 Vb2.t8 VD3.t29 VD3.t28 sky130_fd_pr__pfet_01v8 ad=0.7 pd=3.9 as=0.7 ps=3.9 w=3.5 l=0.2
X104 VOUT-.t48 cap_res_X.t109 sky130_fd_pr__cap_mim_m3_1 l=2 w=2
X105 VOUT-.t49 cap_res_X.t108 sky130_fd_pr__cap_mim_m3_1 l=2 w=2
X106 VOUT-.t50 cap_res_X.t107 sky130_fd_pr__cap_mim_m3_1 l=2 w=2
X107 err_amp_out.t0 V_err_amp_ref.t1 V_err_p.t2 w_109060_7290.t36 sky130_fd_pr__pfet_01v8 ad=0.5 pd=2.9 as=0.5 ps=2.9 w=2.5 l=0.15
X108 VOUT-.t51 cap_res_X.t106 sky130_fd_pr__cap_mim_m3_1 l=2 w=2
X109 V_CMFB_S1.t8 X.t32 a_109160_2280.t104 w_109060_7290.t98 sky130_fd_pr__pfet_01v8 ad=0.4 pd=2.4 as=0.4 ps=2.4 w=2 l=0.15
X110 VOUT+.t53 cap_res_Y.t104 sky130_fd_pr__cap_mim_m3_1 l=2 w=2
X111 VOUT+.t9 V_b_2nd_stage.t4 a_109160_2280.t121 a_109160_2280.t120 sky130_fd_pr__nfet_01v8 ad=1.4 pd=7.4 as=1.4 ps=7.4 w=7 l=0.6
X112 VD4.t5 Vb2.t9 Y.t16 VD4.t4 sky130_fd_pr__pfet_01v8 ad=0.7 pd=3.9 as=0.7 ps=3.9 w=3.5 l=0.2
X113 V_source.t35 VIN+ VD2.t18 a_109160_2280.t219 sky130_fd_pr__nfet_01v8 ad=0.3 pd=1.9 as=0.3 ps=1.9 w=1.5 l=0.15
X114 VOUT-.t52 cap_res_X.t105 sky130_fd_pr__cap_mim_m3_1 l=2 w=2
X115 V_tail_gate.t1 a_109160_2280.t179 a_109160_2280.t180 a_109160_2280.t77 sky130_fd_pr__nfet_01v8 ad=0.3 pd=1.9 as=0.6 ps=3.8 w=1.5 l=0.15
X116 a_118660_3088.t1 V_tot.t2 a_109160_2280.t73 sky130_fd_pr__res_xhigh_po_0p35 l=1.75
X117 VOUT-.t53 cap_res_X.t104 sky130_fd_pr__cap_mim_m3_1 l=2 w=2
X118 a_109160_2280.t178 a_109160_2280.t176 VD1.t7 a_109160_2280.t177 sky130_fd_pr__nfet_01v8 ad=0.6 pd=3.8 as=0.3 ps=1.9 w=1.5 l=0.15
X119 VOUT+.t54 cap_res_Y.t103 sky130_fd_pr__cap_mim_m3_1 l=2 w=2
X120 VOUT+.t55 cap_res_Y.t102 sky130_fd_pr__cap_mim_m3_1 l=2 w=2
X121 Vb1_2.t3 Vb1.t0 Vb1.t1 a_109160_2280.t89 sky130_fd_pr__nfet_01v8 ad=0.3 pd=1.9 as=0.3 ps=1.9 w=1.5 l=0.15
X122 VOUT-.t13 X.t33 w_109060_7290.t97 w_109060_7290.t96 sky130_fd_pr__pfet_01v8 ad=1.2 pd=6.4 as=1.2 ps=6.4 w=6 l=0.15
X123 Vb2_Vb3.t6 Vb2_Vb3.t3 Vb2_Vb3.t5 Vb2_Vb3.t4 sky130_fd_pr__pfet_01v8 ad=1.4 pd=7.8 as=0 ps=0 w=3.5 l=0.2
X124 V_CMFB_S3.t9 Y.t28 a_109160_2280.t47 w_109060_7290.t47 sky130_fd_pr__pfet_01v8 ad=0.4 pd=2.4 as=0.4 ps=2.4 w=2 l=0.15
X125 a_109160_2280.t210 w_109060_7290.t164 w_109060_7290.t166 w_109060_7290.t165 sky130_fd_pr__pfet_01v8 ad=0.4 pd=2.4 as=0.8 ps=4.8 w=2 l=0.15
X126 VD4.t3 Vb2.t10 Y.t15 VD4.t2 sky130_fd_pr__pfet_01v8 ad=0.7 pd=3.9 as=0.7 ps=3.9 w=3.5 l=0.2
X127 VOUT-.t54 cap_res_X.t103 sky130_fd_pr__cap_mim_m3_1 l=2 w=2
X128 w_109060_7290.t169 w_109060_7290.t167 VD4.t33 w_109060_7290.t168 sky130_fd_pr__pfet_01v8 ad=1.4 pd=7.8 as=0.7 ps=3.9 w=3.5 l=0.2
X129 VOUT-.t55 cap_res_X.t102 sky130_fd_pr__cap_mim_m3_1 l=2 w=2
X130 VOUT-.t56 cap_res_X.t101 sky130_fd_pr__cap_mim_m3_1 l=2 w=2
X131 VOUT+.t56 cap_res_Y.t101 sky130_fd_pr__cap_mim_m3_1 l=2 w=2
X132 V_CMFB_S4.t9 Y.t29 w_109060_7290.t30 a_109160_2280.t33 sky130_fd_pr__nfet_01v8 ad=0.6 pd=3.4 as=0.6 ps=3.4 w=3 l=0.15
X133 Y.t24 Vb1.t13 VD2.t21 a_109160_2280.t230 sky130_fd_pr__nfet_01v8 ad=0.3 pd=1.9 as=0.3 ps=1.9 w=1.5 l=0.15
X134 VOUT+.t57 cap_res_Y.t100 sky130_fd_pr__cap_mim_m3_1 l=2 w=2
X135 X.t23 Vb1.t14 VD1.t20 a_109160_2280.t231 sky130_fd_pr__nfet_01v8 ad=0.3 pd=1.9 as=0.3 ps=1.9 w=1.5 l=0.15
X136 VOUT-.t57 cap_res_X.t100 sky130_fd_pr__cap_mim_m3_1 l=2 w=2
X137 V_source.t0 Vb1.t15 Vb1_2.t4 a_109160_2280.t43 sky130_fd_pr__nfet_01v8 ad=0.6 pd=3.8 as=0.6 ps=3.8 w=1.5 l=3
X138 VOUT-.t58 cap_res_X.t99 sky130_fd_pr__cap_mim_m3_1 l=2 w=2
X139 VOUT+.t58 cap_res_Y.t99 sky130_fd_pr__cap_mim_m3_1 l=2 w=2
X140 VOUT+.t59 cap_res_Y.t98 sky130_fd_pr__cap_mim_m3_1 l=2 w=2
X141 w_109060_7290.t16 V_err_gate.t4 V_err_p.t1 w_109060_7290.t15 sky130_fd_pr__pfet_01v8 ad=0.5 pd=2.9 as=0.5 ps=2.9 w=2.5 l=0.15
X142 a_109160_2280.t175 a_109160_2280.t173 err_amp_out.t2 a_109160_2280.t174 sky130_fd_pr__nfet_01v8 ad=1 pd=5.8 as=0.5 ps=2.9 w=2.5 l=0.15
X143 VOUT+.t60 cap_res_Y.t97 sky130_fd_pr__cap_mim_m3_1 l=2 w=2
X144 VOUT+.t61 cap_res_Y.t96 sky130_fd_pr__cap_mim_m3_1 l=2 w=2
X145 w_109060_7290.t94 X.t34 VOUT-.t12 w_109060_7290.t93 sky130_fd_pr__pfet_01v8 ad=1.2 pd=6.4 as=1.2 ps=6.4 w=6 l=0.15
X146 VOUT+.t62 cap_res_Y.t95 sky130_fd_pr__cap_mim_m3_1 l=2 w=2
X147 Vb2_Vb3.t10 w_109060_7290.t161 w_109060_7290.t163 w_109060_7290.t162 sky130_fd_pr__pfet_01v8 ad=0.7 pd=3.9 as=1.4 ps=7.8 w=3.5 l=0.2
X148 VOUT-.t59 cap_res_X.t98 sky130_fd_pr__cap_mim_m3_1 l=2 w=2
X149 VOUT-.t60 cap_res_X.t97 sky130_fd_pr__cap_mim_m3_1 l=2 w=2
X150 VOUT+.t63 cap_res_Y.t94 sky130_fd_pr__cap_mim_m3_1 l=2 w=2
X151 VOUT-.t61 cap_res_X.t96 sky130_fd_pr__cap_mim_m3_1 l=2 w=2
X152 V_source.t33 VIN+ VD2.t17 a_109160_2280.t218 sky130_fd_pr__nfet_01v8 ad=0.3 pd=1.9 as=0.3 ps=1.9 w=1.5 l=0.15
X153 VOUT+.t64 cap_res_Y.t93 sky130_fd_pr__cap_mim_m3_1 l=2 w=2
X154 a_109160_2280.t172 a_109160_2280.t170 w_109060_7290.t179 a_109160_2280.t171 sky130_fd_pr__nfet_01v8 ad=1.2 pd=6.8 as=0.6 ps=3.4 w=3 l=0.15
X155 VD3.t27 Vb2.t11 X.t2 VD3.t26 sky130_fd_pr__pfet_01v8 ad=0.7 pd=3.9 as=0.7 ps=3.9 w=3.5 l=0.2
X156 w_109060_7290.t112 Vb3.t6 VD3.t14 w_109060_7290.t111 sky130_fd_pr__pfet_01v8 ad=0.7 pd=3.9 as=0.7 ps=3.9 w=3.5 l=0.2
X157 VOUT-.t62 cap_res_X.t95 sky130_fd_pr__cap_mim_m3_1 l=2 w=2
X158 V_source.t23 VIN- VD1.t17 a_109160_2280.t205 sky130_fd_pr__nfet_01v8 ad=0.3 pd=1.9 as=0.3 ps=1.9 w=1.5 l=0.15
X159 VOUT-.t63 cap_res_X.t94 sky130_fd_pr__cap_mim_m3_1 l=2 w=2
X160 V_source.t27 VIN- VD1.t16 a_109160_2280.t204 sky130_fd_pr__nfet_01v8 ad=0.3 pd=1.9 as=0.3 ps=1.9 w=1.5 l=0.15
X161 Vb2_Vb3.t2 Vb2_Vb3.t0 Vb3.t0 Vb2_Vb3.t1 sky130_fd_pr__pfet_01v8 ad=1.4 pd=7.8 as=0.7 ps=3.9 w=3.5 l=0.2
X162 cap_res_Y.t0 Y.t6 a_109160_2280.t65 sky130_fd_pr__res_high_po_1p41 l=1.41
X163 VOUT+.t65 cap_res_Y.t92 sky130_fd_pr__cap_mim_m3_1 l=2 w=2
X164 Vb1_2.t2 Vb1.t4 Vb1.t5 a_109160_2280.t64 sky130_fd_pr__nfet_01v8 ad=0.3 pd=1.9 as=0.3 ps=1.9 w=1.5 l=0.15
X165 V_CMFB_S4.t8 Y.t30 w_109060_7290.t26 a_109160_2280.t31 sky130_fd_pr__nfet_01v8 ad=0.6 pd=3.4 as=0.6 ps=3.4 w=3 l=0.15
X166 VD4.t31 VD4.t29 Y.t22 VD4.t30 sky130_fd_pr__pfet_01v8 ad=1.4 pd=7.8 as=0.7 ps=3.9 w=3.5 l=0.2
X167 VOUT+.t66 cap_res_Y.t91 sky130_fd_pr__cap_mim_m3_1 l=2 w=2
X168 VOUT-.t64 cap_res_X.t93 sky130_fd_pr__cap_mim_m3_1 l=2 w=2
X169 VOUT+.t67 cap_res_Y.t90 sky130_fd_pr__cap_mim_m3_1 l=2 w=2
X170 VOUT-.t65 cap_res_X.t92 sky130_fd_pr__cap_mim_m3_1 l=2 w=2
X171 w_109060_7290.t114 Vb3.t7 VD4.t22 w_109060_7290.t113 sky130_fd_pr__pfet_01v8 ad=0.7 pd=3.9 as=0.7 ps=3.9 w=3.5 l=0.2
X172 V_b_2nd_stage.t1 a_108650_n784.t1 a_109160_2280.t85 sky130_fd_pr__res_xhigh_po_0p35 l=2.63
X173 VOUT-.t66 cap_res_X.t91 sky130_fd_pr__cap_mim_m3_1 l=2 w=2
X174 w_109060_7290.t56 Y.t31 VOUT+.t5 w_109060_7290.t55 sky130_fd_pr__pfet_01v8 ad=1.2 pd=6.4 as=1.2 ps=6.4 w=6 l=0.15
X175 VOUT-.t17 w_109060_7290.t158 w_109060_7290.t160 w_109060_7290.t159 sky130_fd_pr__pfet_01v8 ad=1.2 pd=6.4 as=2.4 ps=12.8 w=6 l=0.15
X176 VOUT-.t67 cap_res_X.t90 sky130_fd_pr__cap_mim_m3_1 l=2 w=2
X177 V_CMFB_S3.t8 Y.t32 a_109160_2280.t233 w_109060_7290.t197 sky130_fd_pr__pfet_01v8 ad=0.4 pd=2.4 as=0.4 ps=2.4 w=2 l=0.15
X178 w_109060_7290.t49 Vb3.t8 VD3.t13 w_109060_7290.t48 sky130_fd_pr__pfet_01v8 ad=0.7 pd=3.9 as=0.7 ps=3.9 w=3.5 l=0.2
X179 VOUT-.t68 cap_res_X.t89 sky130_fd_pr__cap_mim_m3_1 l=2 w=2
X180 VD3.t5 VD3.t3 X.t14 VD3.t4 sky130_fd_pr__pfet_01v8 ad=1.4 pd=7.8 as=0.7 ps=3.9 w=3.5 l=0.2
X181 Y.t3 Vb1.t16 VD2.t3 a_109160_2280.t49 sky130_fd_pr__nfet_01v8 ad=0.3 pd=1.9 as=0.3 ps=1.9 w=1.5 l=0.15
X182 VOUT+.t68 cap_res_Y.t89 sky130_fd_pr__cap_mim_m3_1 l=2 w=2
X183 V_CMFB_S4.t7 Y.t33 w_109060_7290.t46 a_109160_2280.t46 sky130_fd_pr__nfet_01v8 ad=0.6 pd=3.4 as=0.6 ps=3.4 w=3 l=0.15
X184 X.t20 Vb1.t17 VD1.t19 a_109160_2280.t222 sky130_fd_pr__nfet_01v8 ad=0.3 pd=1.9 as=0.3 ps=1.9 w=1.5 l=0.15
X185 X.t4 Vb1.t18 VD1.t1 a_109160_2280.t15 sky130_fd_pr__nfet_01v8 ad=0.3 pd=1.9 as=0.3 ps=1.9 w=1.5 l=0.15
X186 VOUT+.t69 cap_res_Y.t88 sky130_fd_pr__cap_mim_m3_1 l=2 w=2
X187 VOUT+.t70 cap_res_Y.t87 sky130_fd_pr__cap_mim_m3_1 l=2 w=2
X188 VOUT+.t71 cap_res_Y.t86 sky130_fd_pr__cap_mim_m3_1 l=2 w=2
X189 VOUT+.t72 cap_res_Y.t85 sky130_fd_pr__cap_mim_m3_1 l=2 w=2
X190 V_source.t15 V_tail_gate.t8 a_109160_2280.t53 a_109160_2280.t52 sky130_fd_pr__nfet_01v8 ad=0.5 pd=2.9 as=0.5 ps=2.9 w=2.5 l=0.15
X191 VOUT-.t69 cap_res_X.t88 sky130_fd_pr__cap_mim_m3_1 l=2 w=2
X192 VOUT+.t73 cap_res_Y.t84 sky130_fd_pr__cap_mim_m3_1 l=2 w=2
X193 a_109160_2280.t62 err_amp_mir.t0 err_amp_mir.t1 a_109160_2280.t61 sky130_fd_pr__nfet_01v8 ad=0.5 pd=2.9 as=0.5 ps=2.9 w=2.5 l=0.15
X194 VOUT-.t70 cap_res_X.t87 sky130_fd_pr__cap_mim_m3_1 l=2 w=2
X195 VOUT-.t71 cap_res_X.t86 sky130_fd_pr__cap_mim_m3_1 l=2 w=2
X196 VOUT-.t72 cap_res_X.t85 sky130_fd_pr__cap_mim_m3_1 l=2 w=2
X197 V_source.t14 V_tail_gate.t9 a_109160_2280.t4 a_109160_2280.t3 sky130_fd_pr__nfet_01v8 ad=0.5 pd=2.9 as=0.5 ps=2.9 w=2.5 l=0.15
X198 Y.t14 Vb2.t12 VD4.t9 VD4.t8 sky130_fd_pr__pfet_01v8 ad=0.7 pd=3.9 as=0.7 ps=3.9 w=3.5 l=0.2
X199 w_109060_7290.t157 w_109060_7290.t155 a_109160_2280.t209 w_109060_7290.t156 sky130_fd_pr__pfet_01v8 ad=0.8 pd=4.8 as=0.4 ps=2.4 w=2 l=0.15
X200 VOUT+.t74 cap_res_Y.t83 sky130_fd_pr__cap_mim_m3_1 l=2 w=2
X201 VD2.t0 Vb1.t19 Y.t0 a_109160_2280.t7 sky130_fd_pr__nfet_01v8 ad=0.3 pd=1.9 as=0.3 ps=1.9 w=1.5 l=0.15
X202 V_source.t31 VIN+ VD2.t16 a_109160_2280.t217 sky130_fd_pr__nfet_01v8 ad=0.3 pd=1.9 as=0.3 ps=1.9 w=1.5 l=0.15
X203 VOUT-.t73 cap_res_X.t84 sky130_fd_pr__cap_mim_m3_1 l=2 w=2
X204 VOUT-.t74 cap_res_X.t83 sky130_fd_pr__cap_mim_m3_1 l=2 w=2
X205 a_109160_2280.t19 V_tail_gate.t10 V_source.t13 a_109160_2280.t18 sky130_fd_pr__nfet_01v8 ad=0.5 pd=2.9 as=0.5 ps=2.9 w=2.5 l=0.15
X206 V_CMFB_S2.t7 X.t35 w_109060_7290.t68 a_109160_2280.t103 sky130_fd_pr__nfet_01v8 ad=0.6 pd=3.4 as=0.6 ps=3.4 w=3 l=0.15
X207 V_source.t28 VIN- VD1.t15 a_109160_2280.t203 sky130_fd_pr__nfet_01v8 ad=0.3 pd=1.9 as=0.3 ps=1.9 w=1.5 l=0.15
X208 VOUT+.t75 cap_res_Y.t82 sky130_fd_pr__cap_mim_m3_1 l=2 w=2
X209 VOUT+.t76 cap_res_Y.t81 sky130_fd_pr__cap_mim_m3_1 l=2 w=2
X210 V_CMFB_S3.t7 Y.t34 a_109160_2280.t36 w_109060_7290.t31 sky130_fd_pr__pfet_01v8 ad=0.4 pd=2.4 as=0.4 ps=2.4 w=2 l=0.15
X211 VOUT+.t77 cap_res_Y.t80 sky130_fd_pr__cap_mim_m3_1 l=2 w=2
X212 VOUT+.t78 cap_res_Y.t79 sky130_fd_pr__cap_mim_m3_1 l=2 w=2
X213 VOUT-.t75 cap_res_X.t82 sky130_fd_pr__cap_mim_m3_1 l=2 w=2
X214 V_source.t1 err_amp_out.t4 a_109160_2280.t51 a_109160_2280.t50 sky130_fd_pr__nfet_01v8 ad=0.5 pd=2.9 as=0.5 ps=2.9 w=2.5 l=0.15
X215 V_err_gate.t3 V_tot.t4 V_err_mir_p.t3 w_109060_7290.t191 sky130_fd_pr__pfet_01v8 ad=0.5 pd=2.9 as=0.5 ps=2.9 w=2.5 l=0.15
X216 VOUT-.t76 cap_res_X.t81 sky130_fd_pr__cap_mim_m3_1 l=2 w=2
X217 VOUT-.t77 cap_res_X.t80 sky130_fd_pr__cap_mim_m3_1 l=2 w=2
X218 VOUT+.t79 cap_res_Y.t78 sky130_fd_pr__cap_mim_m3_1 l=2 w=2
X219 VOUT-.t78 cap_res_X.t79 sky130_fd_pr__cap_mim_m3_1 l=2 w=2
X220 Vb3.t1 Vb2.t13 Vb2_Vb3.t9 Vb2_Vb3.t8 sky130_fd_pr__pfet_01v8 ad=0.7 pd=3.9 as=0.7 ps=3.9 w=3.5 l=0.2
X221 w_109060_7290.t154 w_109060_7290.t152 VD3.t37 w_109060_7290.t153 sky130_fd_pr__pfet_01v8 ad=1.4 pd=7.8 as=0.7 ps=3.9 w=3.5 l=0.2
X222 VOUT+.t80 cap_res_Y.t77 sky130_fd_pr__cap_mim_m3_1 l=2 w=2
X223 Y.t13 Vb2.t14 VD4.t1 VD4.t0 sky130_fd_pr__pfet_01v8 ad=0.7 pd=3.9 as=0.7 ps=3.9 w=3.5 l=0.2
X224 w_109060_7290.t45 Y.t35 VOUT+.t4 w_109060_7290.t44 sky130_fd_pr__pfet_01v8 ad=1.2 pd=6.4 as=1.2 ps=6.4 w=6 l=0.15
X225 a_108510_3088.t1 V_tot.t1 a_109160_2280.t71 sky130_fd_pr__res_xhigh_po_0p35 l=1.75
X226 VOUT+.t81 cap_res_Y.t76 sky130_fd_pr__cap_mim_m3_1 l=2 w=2
X227 VOUT+.t82 cap_res_Y.t75 sky130_fd_pr__cap_mim_m3_1 l=2 w=2
X228 V_CMFB_S3.t6 Y.t36 a_109160_2280.t28 w_109060_7290.t20 sky130_fd_pr__pfet_01v8 ad=0.4 pd=2.4 as=0.4 ps=2.4 w=2 l=0.15
X229 VOUT-.t79 cap_res_X.t78 sky130_fd_pr__cap_mim_m3_1 l=2 w=2
X230 VD2.t15 VIN+ V_source.t34 a_109160_2280.t216 sky130_fd_pr__nfet_01v8 ad=0.3 pd=1.9 as=0.3 ps=1.9 w=1.5 l=0.15
X231 VOUT+.t83 cap_res_Y.t74 sky130_fd_pr__cap_mim_m3_1 l=2 w=2
X232 VOUT+.t84 cap_res_Y.t73 sky130_fd_pr__cap_mim_m3_1 l=2 w=2
X233 Y.t20 a_109160_2280.t167 a_109160_2280.t169 a_109160_2280.t168 sky130_fd_pr__nfet_01v8 ad=0.3 pd=1.9 as=0.6 ps=3.8 w=1.5 l=0.15
X234 X.t3 Vb1.t20 VD1.t0 a_109160_2280.t12 sky130_fd_pr__nfet_01v8 ad=0.3 pd=1.9 as=0.3 ps=1.9 w=1.5 l=0.15
X235 VOUT-.t80 cap_res_X.t77 sky130_fd_pr__cap_mim_m3_1 l=2 w=2
X236 VOUT+.t85 cap_res_Y.t72 sky130_fd_pr__cap_mim_m3_1 l=2 w=2
X237 VOUT-.t81 cap_res_X.t76 sky130_fd_pr__cap_mim_m3_1 l=2 w=2
X238 Y.t12 Vb2.t15 VD4.t15 VD4.t14 sky130_fd_pr__pfet_01v8 ad=0.7 pd=3.9 as=0.7 ps=3.9 w=3.5 l=0.2
X239 VOUT+.t86 cap_res_Y.t71 sky130_fd_pr__cap_mim_m3_1 l=2 w=2
X240 VOUT-.t82 cap_res_X.t75 sky130_fd_pr__cap_mim_m3_1 l=2 w=2
X241 VOUT-.t83 cap_res_X.t74 sky130_fd_pr__cap_mim_m3_1 l=2 w=2
X242 w_109060_7290.t10 Y.t37 V_CMFB_S4.t6 a_109160_2280.t10 sky130_fd_pr__nfet_01v8 ad=0.6 pd=3.4 as=0.6 ps=3.4 w=3 l=0.15
X243 a_109160_2280.t119 V_b_2nd_stage.t5 VOUT+.t8 a_109160_2280.t118 sky130_fd_pr__nfet_01v8 ad=1.4 pd=7.4 as=1.4 ps=7.4 w=7 l=0.6
X244 w_109060_7290.t7 Vb3.t9 Vb2_Vb3.t7 w_109060_7290.t6 sky130_fd_pr__pfet_01v8 ad=0.7 pd=3.9 as=0.7 ps=3.9 w=3.5 l=0.2
X245 VOUT+.t87 cap_res_Y.t70 sky130_fd_pr__cap_mim_m3_1 l=2 w=2
X246 VOUT-.t84 cap_res_X.t73 sky130_fd_pr__cap_mim_m3_1 l=2 w=2
X247 a_109160_2280.t87 V_tail_gate.t11 V_source.t12 a_109160_2280.t86 sky130_fd_pr__nfet_01v8 ad=0.5 pd=2.9 as=0.5 ps=2.9 w=2.5 l=0.15
X248 w_109060_7290.t151 w_109060_7290.t149 VOUT-.t16 w_109060_7290.t150 sky130_fd_pr__pfet_01v8 ad=2.4 pd=12.8 as=1.2 ps=6.4 w=6 l=0.15
X249 VOUT-.t85 cap_res_X.t72 sky130_fd_pr__cap_mim_m3_1 l=2 w=2
X250 VOUT+.t88 cap_res_Y.t69 sky130_fd_pr__cap_mim_m3_1 l=2 w=2
X251 VD3.t12 Vb3.t10 w_109060_7290.t64 w_109060_7290.t63 sky130_fd_pr__pfet_01v8 ad=0.7 pd=3.9 as=0.7 ps=3.9 w=3.5 l=0.2
X252 VOUT+.t89 cap_res_Y.t68 sky130_fd_pr__cap_mim_m3_1 l=2 w=2
X253 VOUT+.t90 cap_res_Y.t67 sky130_fd_pr__cap_mim_m3_1 l=2 w=2
X254 V_CMFB_S1.t7 X.t36 a_109160_2280.t102 w_109060_7290.t92 sky130_fd_pr__pfet_01v8 ad=0.4 pd=2.4 as=0.4 ps=2.4 w=2 l=0.15
X255 X.t15 Vb2.t16 VD3.t25 VD3.t24 sky130_fd_pr__pfet_01v8 ad=0.7 pd=3.9 as=0.7 ps=3.9 w=3.5 l=0.2
X256 VOUT-.t86 cap_res_X.t71 sky130_fd_pr__cap_mim_m3_1 l=2 w=2
X257 V_CMFB_S2.t6 X.t37 w_109060_7290.t69 a_109160_2280.t101 sky130_fd_pr__nfet_01v8 ad=0.6 pd=3.4 as=0.6 ps=3.4 w=3 l=0.15
X258 V_source.t11 V_tail_gate.t12 a_109160_2280.t224 a_109160_2280.t223 sky130_fd_pr__nfet_01v8 ad=0.5 pd=2.9 as=0.5 ps=2.9 w=2.5 l=0.15
X259 w_109060_7290.t188 Y.t38 VOUT+.t15 w_109060_7290.t187 sky130_fd_pr__pfet_01v8 ad=1.2 pd=6.4 as=1.2 ps=6.4 w=6 l=0.15
X260 VOUT-.t87 cap_res_X.t70 sky130_fd_pr__cap_mim_m3_1 l=2 w=2
X261 a_109160_2280.t117 V_b_2nd_stage.t6 VOUT+.t7 a_109160_2280.t116 sky130_fd_pr__nfet_01v8 ad=1.4 pd=7.4 as=1.4 ps=7.4 w=7 l=0.6
X262 V_source.t29 VIN- VD1.t14 a_109160_2280.t202 sky130_fd_pr__nfet_01v8 ad=0.3 pd=1.9 as=0.3 ps=1.9 w=1.5 l=0.15
X263 VOUT-.t88 cap_res_X.t69 sky130_fd_pr__cap_mim_m3_1 l=2 w=2
X264 VOUT+.t91 cap_res_Y.t66 sky130_fd_pr__cap_mim_m3_1 l=2 w=2
X265 V_p_mir.t1 V_tail_gate.t13 a_109160_2280.t40 a_109160_2280.t39 sky130_fd_pr__nfet_01v8 ad=0.5 pd=2.9 as=0.5 ps=2.9 w=2.5 l=0.15
X266 VOUT-.t89 cap_res_X.t68 sky130_fd_pr__cap_mim_m3_1 l=2 w=2
X267 a_109160_2280.t115 V_b_2nd_stage.t7 VOUT-.t18 a_109160_2280.t114 sky130_fd_pr__nfet_01v8 ad=1.4 pd=7.4 as=1.4 ps=7.4 w=7 l=0.6
X268 w_109060_7290.t3 V_err_gate.t5 V_err_mir_p.t1 w_109060_7290.t2 sky130_fd_pr__pfet_01v8 ad=0.5 pd=2.9 as=0.5 ps=2.9 w=2.5 l=0.15
X269 VOUT+.t0 a_108650_n784.t0 a_109160_2280.t24 sky130_fd_pr__res_xhigh_po_0p35 l=2.63
X270 VD4.t21 Vb3.t11 w_109060_7290.t58 w_109060_7290.t57 sky130_fd_pr__pfet_01v8 ad=0.7 pd=3.9 as=0.7 ps=3.9 w=3.5 l=0.2
X271 VOUT+.t92 cap_res_Y.t65 sky130_fd_pr__cap_mim_m3_1 l=2 w=2
X272 a_109160_2280.t78 V_tail_gate.t14 V_source.t10 a_109160_2280.t77 sky130_fd_pr__nfet_01v8 ad=0.5 pd=2.9 as=0.5 ps=2.9 w=2.5 l=0.15
X273 VOUT+.t93 cap_res_Y.t64 sky130_fd_pr__cap_mim_m3_1 l=2 w=2
X274 Vb2_2.t2 Vb2.t17 w_109060_7290.t184 w_109060_7290.t183 sky130_fd_pr__pfet_01v8 ad=0.36 pd=2.2 as=0.36 ps=2.2 w=1.8 l=0.2
X275 VD3.t11 Vb3.t12 w_109060_7290.t199 w_109060_7290.t198 sky130_fd_pr__pfet_01v8 ad=0.7 pd=3.9 as=0.7 ps=3.9 w=3.5 l=0.2
X276 w_109060_7290.t34 Y.t39 VOUT+.t2 w_109060_7290.t33 sky130_fd_pr__pfet_01v8 ad=1.2 pd=6.4 as=1.2 ps=6.4 w=6 l=0.15
X277 VOUT-.t90 cap_res_X.t67 sky130_fd_pr__cap_mim_m3_1 l=2 w=2
X278 VOUT-.t91 cap_res_X.t66 sky130_fd_pr__cap_mim_m3_1 l=2 w=2
X279 VOUT-.t92 cap_res_X.t65 sky130_fd_pr__cap_mim_m3_1 l=2 w=2
X280 VOUT+.t94 cap_res_Y.t63 sky130_fd_pr__cap_mim_m3_1 l=2 w=2
X281 V_source.t9 V_tail_gate.t15 a_109160_2280.t84 a_109160_2280.t83 sky130_fd_pr__nfet_01v8 ad=0.5 pd=2.9 as=0.5 ps=2.9 w=2.5 l=0.15
X282 VOUT+.t95 cap_res_Y.t62 sky130_fd_pr__cap_mim_m3_1 l=2 w=2
X283 VOUT-.t93 cap_res_X.t64 sky130_fd_pr__cap_mim_m3_1 l=2 w=2
X284 a_109160_2280.t113 V_b_2nd_stage.t8 VOUT-.t3 a_109160_2280.t112 sky130_fd_pr__nfet_01v8 ad=1.4 pd=7.4 as=1.4 ps=7.4 w=7 l=0.6
X285 a_109160_2280.t42 Y.t40 V_CMFB_S3.t5 w_109060_7290.t40 sky130_fd_pr__pfet_01v8 ad=0.4 pd=2.4 as=0.4 ps=2.4 w=2 l=0.15
X286 X.t5 Vb1.t21 VD1.t2 a_109160_2280.t29 sky130_fd_pr__nfet_01v8 ad=0.3 pd=1.9 as=0.3 ps=1.9 w=1.5 l=0.15
X287 Vb1.t8 a_109160_2280.t164 a_109160_2280.t166 a_109160_2280.t165 sky130_fd_pr__nfet_01v8 ad=0.3 pd=1.9 as=0.6 ps=3.8 w=1.5 l=0.15
X288 w_109060_7290.t43 Y.t41 V_CMFB_S4.t5 a_109160_2280.t45 sky130_fd_pr__nfet_01v8 ad=0.6 pd=3.4 as=0.6 ps=3.4 w=3 l=0.15
X289 VD3.t10 Vb3.t13 w_109060_7290.t116 w_109060_7290.t115 sky130_fd_pr__pfet_01v8 ad=0.7 pd=3.9 as=0.7 ps=3.9 w=3.5 l=0.2
X290 VOUT+.t96 cap_res_Y.t61 sky130_fd_pr__cap_mim_m3_1 l=2 w=2
X291 VOUT+.t97 cap_res_Y.t60 sky130_fd_pr__cap_mim_m3_1 l=2 w=2
X292 VD4.t11 Vb2.t18 Y.t11 VD4.t10 sky130_fd_pr__pfet_01v8 ad=0.7 pd=3.9 as=0.7 ps=3.9 w=3.5 l=0.2
X293 VOUT+.t98 cap_res_Y.t59 sky130_fd_pr__cap_mim_m3_1 l=2 w=2
X294 VOUT-.t94 cap_res_X.t63 sky130_fd_pr__cap_mim_m3_1 l=2 w=2
X295 VOUT-.t95 cap_res_X.t62 sky130_fd_pr__cap_mim_m3_1 l=2 w=2
X296 VOUT+.t99 cap_res_Y.t58 sky130_fd_pr__cap_mim_m3_1 l=2 w=2
X297 w_109060_7290.t91 X.t38 VOUT-.t11 w_109060_7290.t90 sky130_fd_pr__pfet_01v8 ad=1.2 pd=6.4 as=1.2 ps=6.4 w=6 l=0.15
X298 V_CMFB_S1.t6 X.t39 a_109160_2280.t100 w_109060_7290.t89 sky130_fd_pr__pfet_01v8 ad=0.4 pd=2.4 as=0.4 ps=2.4 w=2 l=0.15
X299 VOUT-.t96 cap_res_X.t61 sky130_fd_pr__cap_mim_m3_1 l=2 w=2
X300 VOUT-.t97 cap_res_X.t60 sky130_fd_pr__cap_mim_m3_1 l=2 w=2
X301 VOUT-.t98 cap_res_X.t59 sky130_fd_pr__cap_mim_m3_1 l=2 w=2
X302 VOUT-.t99 cap_res_X.t58 sky130_fd_pr__cap_mim_m3_1 l=2 w=2
X303 V_CMFB_S2.t5 X.t40 w_109060_7290.t81 a_109160_2280.t99 sky130_fd_pr__nfet_01v8 ad=0.6 pd=3.4 as=0.6 ps=3.4 w=3 l=0.15
X304 a_109160_2280.t163 a_109160_2280.t161 Y.t19 a_109160_2280.t162 sky130_fd_pr__nfet_01v8 ad=0.6 pd=3.8 as=0.3 ps=1.9 w=1.5 l=0.15
X305 VOUT-.t100 cap_res_X.t57 sky130_fd_pr__cap_mim_m3_1 l=2 w=2
X306 V_source.t24 VIN- VD1.t13 a_109160_2280.t201 sky130_fd_pr__nfet_01v8 ad=0.3 pd=1.9 as=0.3 ps=1.9 w=1.5 l=0.15
X307 VOUT-.t101 cap_res_X.t56 sky130_fd_pr__cap_mim_m3_1 l=2 w=2
X308 V_err_gate.t2 w_109060_7290.t146 w_109060_7290.t148 w_109060_7290.t147 sky130_fd_pr__pfet_01v8 ad=0.5 pd=2.9 as=1 ps=5.8 w=2.5 l=0.15
X309 VOUT-.t102 cap_res_X.t55 sky130_fd_pr__cap_mim_m3_1 l=2 w=2
X310 VOUT-.t103 cap_res_X.t54 sky130_fd_pr__cap_mim_m3_1 l=2 w=2
X311 a_108630_3088.t0 V_tot.t0 a_109160_2280.t14 sky130_fd_pr__res_xhigh_po_0p35 l=1.75
X312 VOUT-.t104 cap_res_X.t53 sky130_fd_pr__cap_mim_m3_1 l=2 w=2
X313 VOUT-.t105 cap_res_X.t52 sky130_fd_pr__cap_mim_m3_1 l=2 w=2
X314 w_109060_7290.t82 X.t41 V_CMFB_S2.t4 a_109160_2280.t98 sky130_fd_pr__nfet_01v8 ad=0.6 pd=3.4 as=0.6 ps=3.4 w=3 l=0.15
X315 w_109060_7290.t145 w_109060_7290.t142 w_109060_7290.t144 w_109060_7290.t143 sky130_fd_pr__pfet_01v8 ad=0.72 pd=4.4 as=0 ps=0 w=1.8 l=0.2
X316 VOUT-.t106 cap_res_X.t51 sky130_fd_pr__cap_mim_m3_1 l=2 w=2
X317 a_109160_2280.t160 a_109160_2280.t159 V_tail_gate.t0 a_109160_2280.t5 sky130_fd_pr__nfet_01v8 ad=0.6 pd=3.8 as=0.3 ps=1.9 w=1.5 l=0.15
X318 VD2.t14 VIN+ V_source.t40 a_109160_2280.t215 sky130_fd_pr__nfet_01v8 ad=0.3 pd=1.9 as=0.3 ps=1.9 w=1.5 l=0.15
X319 VOUT+.t14 Y.t42 w_109060_7290.t182 w_109060_7290.t181 sky130_fd_pr__pfet_01v8 ad=1.2 pd=6.4 as=1.2 ps=6.4 w=6 l=0.15
X320 VOUT+.t100 cap_res_Y.t57 sky130_fd_pr__cap_mim_m3_1 l=2 w=2
X321 VD4.t37 Vb2.t19 Y.t10 VD4.t36 sky130_fd_pr__pfet_01v8 ad=0.7 pd=3.9 as=0.7 ps=3.9 w=3.5 l=0.2
X322 a_109160_2280.t27 Y.t43 V_CMFB_S3.t4 w_109060_7290.t19 sky130_fd_pr__pfet_01v8 ad=0.4 pd=2.4 as=0.4 ps=2.4 w=2 l=0.15