* PEX produced on Wed Jul  9 09:39:59 AM CEST 2025 using /foss/tools/osic-multitool/iic-pex.sh with m=3 and s=1
* NGSPICE file created from two_stage_opamp_dummy_magic.ext - technology: sky130A

.subckt two_stage_opamp_dummy_magic VDDA V_CMFB_S1 V_CMFB_S3 Vb3 Vb2 Vb1 V_CMFB_S2
+ V_CMFB_S4 VOUT- VOUT+ V_tail_gate V_err_amp_ref V_err_gate VIN+ VIN- GNDA
X0 VD4.t36 Vb2.t3 Y.t13 VD4.t35 sky130_fd_pr__pfet_01v8 ad=0.7 pd=3.9 as=0.7 ps=3.9 w=3.5 l=0.2
X1 VD1.t21 VIN-.t0 V_source.t27 GNDA.t8 sky130_fd_pr__nfet_01v8 ad=0.3 pd=1.9 as=0.3 ps=1.9 w=1.5 l=0.15
X2 VDDA.t124 Vb3.t2 VD3.t9 VDDA.t123 sky130_fd_pr__pfet_01v8 ad=0.7 pd=3.9 as=0.7 ps=3.9 w=3.5 l=0.2
X3 VOUT-.t16 X.t25 VDDA.t11 VDDA.t10 sky130_fd_pr__pfet_01v8 ad=1.2 pd=6.4 as=1.2 ps=6.4 w=6 l=0.15
X4 VOUT-.t19 cap_res_X.t138 sky130_fd_pr__cap_mim_m3_1 l=2 w=2
X5 VOUT+.t19 cap_res_Y.t138 sky130_fd_pr__cap_mim_m3_1 l=2 w=2
X6 VOUT-.t20 cap_res_X.t137 sky130_fd_pr__cap_mim_m3_1 l=2 w=2
X7 VOUT+.t20 cap_res_Y.t137 sky130_fd_pr__cap_mim_m3_1 l=2 w=2
X8 VOUT-.t21 cap_res_X.t136 sky130_fd_pr__cap_mim_m3_1 l=2 w=2
X9 VOUT+.t21 cap_res_Y.t136 sky130_fd_pr__cap_mim_m3_1 l=2 w=2
X10 V_source.t14 V_tail_gate.t4 GNDA.t29 GNDA.t3 sky130_fd_pr__nfet_01v8 ad=0.5 pd=2.9 as=0.5 ps=2.9 w=2.5 l=0.15
X11 err_amp_out.t7 GNDA.t114 GNDA.t116 GNDA.t115 sky130_fd_pr__nfet_01v8 ad=0.1 pd=0.9 as=0.2 ps=1.8 w=0.5 l=0.15
X12 VDDA.t122 Vb3.t3 VD3.t7 VDDA.t121 sky130_fd_pr__pfet_01v8 ad=0.7 pd=3.9 as=0.7 ps=3.9 w=3.5 l=0.2
X13 VDDA.t54 X.t26 V_CMFB_S2.t10 GNDA.t0 sky130_fd_pr__nfet_01v8 ad=0.6 pd=3.4 as=0.6 ps=3.4 w=3 l=0.15
X14 VOUT+.t14 a_109990_5430# VDDA.t221 VDDA.t220 sky130_fd_pr__pfet_01v8 ad=1.2 pd=6.4 as=2.4 ps=12.8 w=6 l=0.15
X15 VDDA.t219 Y.t25 V_CMFB_S4.t10 GNDA.t0 sky130_fd_pr__nfet_01v8 ad=0.6 pd=3.4 as=0.6 ps=3.4 w=3 l=0.15
X16 VDDA.t43 V_err_gate.t12 V_err_p.t20 VDDA.t42 sky130_fd_pr__pfet_01v8 ad=0.1 pd=0.9 as=0.1 ps=0.9 w=0.5 l=0.15
X17 VDDA.t218 Y.t26 V_CMFB_S4.t9 GNDA.t0 sky130_fd_pr__nfet_01v8 ad=0.6 pd=3.4 as=0.6 ps=3.4 w=3 l=0.15
X18 Vb2_Vb3.t6 Vb2_Vb3.t3 Vb2_Vb3.t5 Vb2_Vb3.t4 sky130_fd_pr__pfet_01v8 ad=1.44 pd=8 as=0 ps=0 w=3.6 l=0.2
X19 VOUT+.t22 cap_res_Y.t135 sky130_fd_pr__cap_mim_m3_1 l=2 w=2
X20 VD1.t0 Vb1.t2 X.t0 GNDA.t1 sky130_fd_pr__nfet_01v8 ad=0.3 pd=1.9 as=0.3 ps=1.9 w=1.5 l=0.15
X21 VOUT-.t22 cap_res_X.t135 sky130_fd_pr__cap_mim_m3_1 l=2 w=2
X22 VOUT+.t23 cap_res_Y.t134 sky130_fd_pr__cap_mim_m3_1 l=2 w=2
X23 err_amp_mir.t16 V_tot.t4 V_err_p.t3 VDDA.t51 sky130_fd_pr__pfet_01v8 ad=0.1 pd=0.9 as=0.1 ps=0.9 w=0.5 l=0.15
X24 GNDA.t122 X.t27 V_CMFB_S1.t10 VDDA.t240 sky130_fd_pr__pfet_01v8 ad=0.4 pd=2.4 as=0.4 ps=2.4 w=2 l=0.15
X25 V_source.t34 VIN-.t1 VD1.t20 GNDA.t8 sky130_fd_pr__nfet_01v8 ad=0.3 pd=1.9 as=0.3 ps=1.9 w=1.5 l=0.15
X26 VOUT+.t24 cap_res_Y.t133 sky130_fd_pr__cap_mim_m3_1 l=2 w=2
X27 GNDA.t125 err_amp_mir.t17 err_amp_out.t8 GNDA.t124 sky130_fd_pr__nfet_01v8 ad=0.1 pd=0.9 as=0.1 ps=0.9 w=0.5 l=0.15
X28 GNDA.t113 GNDA.t112 VOUT+.t16 GNDA.t9 sky130_fd_pr__nfet_01v8 ad=2.8 pd=14.8 as=1.4 ps=7.4 w=7 l=0.6
X29 VD2.t21 Vb1.t3 Y.t24 GNDA.t1 sky130_fd_pr__nfet_01v8 ad=0.3 pd=1.9 as=0.3 ps=1.9 w=1.5 l=0.15
X30 VD4.t34 Vb2.t4 Y.t19 VD4.t33 sky130_fd_pr__pfet_01v8 ad=0.7 pd=3.9 as=0.7 ps=3.9 w=3.5 l=0.2
X31 VDDA.t120 Vb3.t4 VD3.t4 VDDA.t119 sky130_fd_pr__pfet_01v8 ad=0.7 pd=3.9 as=0.7 ps=3.9 w=3.5 l=0.2
X32 VOUT+.t25 cap_res_Y.t132 sky130_fd_pr__cap_mim_m3_1 l=2 w=2
X33 VOUT-.t23 cap_res_X.t134 sky130_fd_pr__cap_mim_m3_1 l=2 w=2
X34 VOUT-.t24 cap_res_X.t133 sky130_fd_pr__cap_mim_m3_1 l=2 w=2
X35 VOUT+.t26 cap_res_Y.t131 sky130_fd_pr__cap_mim_m3_1 l=2 w=2
X36 VOUT+.t27 cap_res_Y.t130 sky130_fd_pr__cap_mim_m3_1 l=2 w=2
X37 VOUT+.t28 cap_res_Y.t129 sky130_fd_pr__cap_mim_m3_1 l=2 w=2
X38 VOUT-.t25 cap_res_X.t132 sky130_fd_pr__cap_mim_m3_1 l=2 w=2
X39 VOUT-.t26 cap_res_X.t131 sky130_fd_pr__cap_mim_m3_1 l=2 w=2
X40 V_CMFB_S3.t10 Y.t27 GNDA.t67 VDDA.t217 sky130_fd_pr__pfet_01v8 ad=0.4 pd=2.4 as=0.4 ps=2.4 w=2 l=0.15
X41 VD3.t31 Vb2.t5 X.t20 VD3.t30 sky130_fd_pr__pfet_01v8 ad=0.7 pd=3.9 as=0.7 ps=3.9 w=3.5 l=0.2
X42 VOUT-.t15 X.t28 VDDA.t39 VDDA.t38 sky130_fd_pr__pfet_01v8 ad=1.2 pd=6.4 as=1.2 ps=6.4 w=6 l=0.15
X43 VDDA.t179 VDDA.t177 GNDA.t15 VDDA.t178 sky130_fd_pr__pfet_01v8 ad=0.8 pd=4.8 as=0.4 ps=2.4 w=2 l=0.15
X44 V_err_gate.t3 V_err_amp_ref.t0 V_err_mir_p.t4 VDDA.t27 sky130_fd_pr__pfet_01v8 ad=0.1 pd=0.9 as=0.1 ps=0.9 w=0.5 l=0.15
X45 VOUT+.t29 cap_res_Y.t128 sky130_fd_pr__cap_mim_m3_1 l=2 w=2
X46 Vb2_Vb3.t2 Vb2_Vb3.t0 Vb3.t1 Vb2_Vb3.t1 sky130_fd_pr__pfet_01v8 ad=1.44 pd=8 as=0.72 ps=4 w=3.6 l=0.2
X47 V_source.t37 V_tail_gate.t5 GNDA.t120 GNDA.t3 sky130_fd_pr__nfet_01v8 ad=0.5 pd=2.9 as=0.5 ps=2.9 w=2.5 l=0.15
X48 VOUT+.t30 cap_res_Y.t127 sky130_fd_pr__cap_mim_m3_1 l=2 w=2
X49 V_source.t11 V_tail_gate.t6 GNDA.t27 GNDA.t3 sky130_fd_pr__nfet_01v8 ad=0.5 pd=2.9 as=0.5 ps=2.9 w=2.5 l=0.15
X50 VDDA.t118 Vb3.t5 VD4.t4 VDDA.t117 sky130_fd_pr__pfet_01v8 ad=0.7 pd=3.9 as=0.7 ps=3.9 w=3.5 l=0.2
X51 VOUT+.t31 cap_res_Y.t126 sky130_fd_pr__cap_mim_m3_1 l=2 w=2
X52 VOUT+.t32 cap_res_Y.t125 sky130_fd_pr__cap_mim_m3_1 l=2 w=2
X53 VOUT+.t33 cap_res_Y.t124 sky130_fd_pr__cap_mim_m3_1 l=2 w=2
X54 VOUT+.t34 cap_res_Y.t123 sky130_fd_pr__cap_mim_m3_1 l=2 w=2
X55 VOUT-.t2 V_b_2nd_stage.t2 GNDA.t38 GNDA.t9 sky130_fd_pr__nfet_01v8 ad=1.4 pd=7.4 as=1.4 ps=7.4 w=7 l=0.6
X56 VDDA.t29 X.t29 V_CMFB_S2.t9 GNDA.t0 sky130_fd_pr__nfet_01v8 ad=0.6 pd=3.4 as=0.6 ps=3.4 w=3 l=0.15
X57 VDDA.t47 V_err_gate.t13 V_err_mir_p.t14 VDDA.t46 sky130_fd_pr__pfet_01v8 ad=0.1 pd=0.9 as=0.1 ps=0.9 w=0.5 l=0.15
X58 VOUT+.t35 cap_res_Y.t122 sky130_fd_pr__cap_mim_m3_1 l=2 w=2
X59 VOUT-.t27 cap_res_X.t130 sky130_fd_pr__cap_mim_m3_1 l=2 w=2
X60 VD3.t2 Vb3.t6 VDDA.t116 VDDA.t115 sky130_fd_pr__pfet_01v8 ad=0.7 pd=3.9 as=0.7 ps=3.9 w=3.5 l=0.2
X61 VDDA.t239 V_err_gate.t14 V_err_mir_p.t13 VDDA.t238 sky130_fd_pr__pfet_01v8 ad=0.1 pd=0.9 as=0.1 ps=0.9 w=0.5 l=0.15
X62 VD1.t4 Vb1.t4 X.t4 GNDA.t1 sky130_fd_pr__nfet_01v8 ad=0.3 pd=1.9 as=0.3 ps=1.9 w=1.5 l=0.15
X63 VOUT+.t36 cap_res_Y.t121 sky130_fd_pr__cap_mim_m3_1 l=2 w=2
X64 err_amp_mir.t15 V_tot.t5 V_err_p.t8 VDDA.t72 sky130_fd_pr__pfet_01v8 ad=0.1 pd=0.9 as=0.1 ps=0.9 w=0.5 l=0.15
X65 VOUT+.t37 cap_res_Y.t120 sky130_fd_pr__cap_mim_m3_1 l=2 w=2
X66 VDDA.t216 Y.t28 VOUT+.t13 VDDA.t215 sky130_fd_pr__pfet_01v8 ad=1.2 pd=6.4 as=1.2 ps=6.4 w=6 l=0.15
X67 VDDA.t82 a_111200_5430# VOUT+.t3 VDDA.t81 sky130_fd_pr__pfet_01v8 ad=2.4 pd=12.8 as=1.2 ps=6.4 w=6 l=0.15
X68 GNDA.t55 X.t30 V_CMFB_S1.t9 VDDA.t68 sky130_fd_pr__pfet_01v8 ad=0.4 pd=2.4 as=0.4 ps=2.4 w=2 l=0.15
X69 VDDA.t176 VDDA.t174 VDDA.t176 VDDA.t175 sky130_fd_pr__pfet_01v8 ad=0.71 pd=3.95 as=0 ps=0 w=3.55 l=0.2
X70 VOUT-.t28 cap_res_X.t129 sky130_fd_pr__cap_mim_m3_1 l=2 w=2
X71 V_source.t23 VIN+.t0 VD2.t9 GNDA.t8 sky130_fd_pr__nfet_01v8 ad=0.3 pd=1.9 as=0.3 ps=1.9 w=1.5 l=0.15
X72 VOUT+.t38 cap_res_Y.t119 sky130_fd_pr__cap_mim_m3_1 l=2 w=2
X73 VOUT+.t39 cap_res_Y.t118 sky130_fd_pr__cap_mim_m3_1 l=2 w=2
X74 VOUT+.t40 cap_res_Y.t117 sky130_fd_pr__cap_mim_m3_1 l=2 w=2
X75 GNDA.t111 GNDA.t110 V_source.t6 GNDA.t3 sky130_fd_pr__nfet_01v8 ad=1 pd=5.8 as=0.5 ps=2.9 w=2.5 l=0.15
X76 VDDA.t227 GNDA.t108 GNDA.t109 GNDA.t0 sky130_fd_pr__nfet_01v8 ad=0.6 pd=3.4 as=1.2 ps=6.8 w=3 l=0.15
X77 GNDA.t34 err_amp_mir.t8 err_amp_mir.t9 GNDA.t33 sky130_fd_pr__nfet_01v8 ad=0.1 pd=0.9 as=0.1 ps=0.9 w=0.5 l=0.15
X78 VOUT+.t41 cap_res_Y.t116 sky130_fd_pr__cap_mim_m3_1 l=2 w=2
X79 VDDA.t114 Vb3.t7 VD4.t10 VDDA.t113 sky130_fd_pr__pfet_01v8 ad=0.7 pd=3.9 as=0.7 ps=3.9 w=3.5 l=0.2
X80 GNDA.t107 GNDA.t105 err_amp_mir.t11 GNDA.t106 sky130_fd_pr__nfet_01v8 ad=0.2 pd=1.8 as=0.1 ps=0.9 w=0.5 l=0.15
X81 VOUT+.t42 cap_res_Y.t115 sky130_fd_pr__cap_mim_m3_1 l=2 w=2
X82 VOUT-.t29 cap_res_X.t128 sky130_fd_pr__cap_mim_m3_1 l=2 w=2
X83 VOUT-.t30 cap_res_X.t127 sky130_fd_pr__cap_mim_m3_1 l=2 w=2
X84 VOUT+.t43 cap_res_Y.t114 sky130_fd_pr__cap_mim_m3_1 l=2 w=2
X85 VOUT-.t31 cap_res_X.t126 sky130_fd_pr__cap_mim_m3_1 l=2 w=2
X86 VOUT+.t44 cap_res_Y.t113 sky130_fd_pr__cap_mim_m3_1 l=2 w=2
X87 VOUT+.t15 GNDA.t103 GNDA.t104 GNDA.t9 sky130_fd_pr__nfet_01v8 ad=1.4 pd=7.4 as=2.8 ps=14.8 w=7 l=0.6
X88 V_err_p.t19 V_err_gate.t15 VDDA.t18 VDDA.t17 sky130_fd_pr__pfet_01v8 ad=0.1 pd=0.9 as=0.1 ps=0.9 w=0.5 l=0.15
X89 VOUT+.t45 cap_res_Y.t112 sky130_fd_pr__cap_mim_m3_1 l=2 w=2
X90 VOUT-.t32 cap_res_X.t125 sky130_fd_pr__cap_mim_m3_1 l=2 w=2
X91 V_CMFB_S3.t9 Y.t29 GNDA.t69 VDDA.t214 sky130_fd_pr__pfet_01v8 ad=0.4 pd=2.4 as=0.4 ps=2.4 w=2 l=0.15
X92 GNDA.t102 GNDA.t101 V_tail_gate.t3 GNDA.t8 sky130_fd_pr__nfet_01v8 ad=0.6 pd=3.8 as=0.3 ps=1.9 w=1.5 l=0.15
X93 VD1.t19 VIN-.t2 V_source.t26 GNDA.t8 sky130_fd_pr__nfet_01v8 ad=0.3 pd=1.9 as=0.3 ps=1.9 w=1.5 l=0.15
X94 VOUT-.t14 X.t31 VDDA.t9 VDDA.t8 sky130_fd_pr__pfet_01v8 ad=1.2 pd=6.4 as=1.2 ps=6.4 w=6 l=0.15
X95 VOUT+.t46 cap_res_Y.t111 sky130_fd_pr__cap_mim_m3_1 l=2 w=2
X96 V_err_gate.t0 V_err_amp_ref.t1 V_err_mir_p.t3 VDDA.t19 sky130_fd_pr__pfet_01v8 ad=0.1 pd=0.9 as=0.1 ps=0.9 w=0.5 l=0.15
X97 VOUT+.t47 cap_res_Y.t110 sky130_fd_pr__cap_mim_m3_1 l=2 w=2
X98 VOUT-.t33 cap_res_X.t124 sky130_fd_pr__cap_mim_m3_1 l=2 w=2
X99 VOUT+.t0 V_b_2nd_stage.t3 GNDA.t10 GNDA.t9 sky130_fd_pr__nfet_01v8 ad=1.4 pd=7.4 as=1.4 ps=7.4 w=7 l=0.6
X100 VOUT+.t48 cap_res_Y.t109 sky130_fd_pr__cap_mim_m3_1 l=2 w=2
X101 VD3.t3 Vb3.t8 VDDA.t112 VDDA.t111 sky130_fd_pr__pfet_01v8 ad=0.7 pd=3.9 as=0.7 ps=3.9 w=3.5 l=0.2
X102 V_source.t25 V_tail_gate.t7 GNDA.t58 GNDA.t3 sky130_fd_pr__nfet_01v8 ad=0.5 pd=2.9 as=0.5 ps=2.9 w=2.5 l=0.15
X103 VOUT-.t34 cap_res_X.t123 sky130_fd_pr__cap_mim_m3_1 l=2 w=2
X104 VOUT+.t49 cap_res_Y.t108 sky130_fd_pr__cap_mim_m3_1 l=2 w=2
X105 VOUT+.t50 cap_res_Y.t107 sky130_fd_pr__cap_mim_m3_1 l=2 w=2
X106 VOUT-.t35 cap_res_X.t122 sky130_fd_pr__cap_mim_m3_1 l=2 w=2
X107 Vb3.t0 Vb2.t6 Vb2_Vb3.t10 Vb2_Vb3.t9 sky130_fd_pr__pfet_01v8 ad=0.72 pd=4 as=0.72 ps=4 w=3.6 l=0.2
X108 VOUT-.t36 cap_res_X.t121 sky130_fd_pr__cap_mim_m3_1 l=2 w=2
X109 VDDA.t14 X.t32 V_CMFB_S2.t8 GNDA.t0 sky130_fd_pr__nfet_01v8 ad=0.6 pd=3.4 as=0.6 ps=3.4 w=3 l=0.15
X110 VDDA.t26 V_err_gate.t16 V_err_mir_p.t12 VDDA.t25 sky130_fd_pr__pfet_01v8 ad=0.1 pd=0.9 as=0.1 ps=0.9 w=0.5 l=0.15
X111 VDDA.t23 V_err_gate.t17 V_err_p.t18 VDDA.t22 sky130_fd_pr__pfet_01v8 ad=0.1 pd=0.9 as=0.1 ps=0.9 w=0.5 l=0.15
X112 VOUT+.t18 V_b_2nd_stage.t4 GNDA.t132 GNDA.t9 sky130_fd_pr__nfet_01v8 ad=1.4 pd=7.4 as=1.4 ps=7.4 w=7 l=0.6
X113 err_amp_out.t4 V_err_amp_ref.t2 V_err_p.t5 VDDA.t61 sky130_fd_pr__pfet_01v8 ad=0.1 pd=0.9 as=0.1 ps=0.9 w=0.5 l=0.15
X114 VOUT-.t37 cap_res_X.t120 sky130_fd_pr__cap_mim_m3_1 l=2 w=2
X115 VOUT+.t51 cap_res_Y.t106 sky130_fd_pr__cap_mim_m3_1 l=2 w=2
X116 VDDA.t173 VDDA.t171 VD4.t37 VDDA.t172 sky130_fd_pr__pfet_01v8 ad=1.575 pd=7.9 as=0.7 ps=3.9 w=3.5 l=0.2
X117 VDDA.t213 Y.t30 VOUT+.t12 VDDA.t212 sky130_fd_pr__pfet_01v8 ad=1.2 pd=6.4 as=1.2 ps=6.4 w=6 l=0.15
X118 VOUT+.t52 cap_res_Y.t105 sky130_fd_pr__cap_mim_m3_1 l=2 w=2
X119 VOUT-.t38 cap_res_X.t119 sky130_fd_pr__cap_mim_m3_1 l=2 w=2
X120 GNDA.t14 X.t33 V_CMFB_S1.t8 VDDA.t12 sky130_fd_pr__pfet_01v8 ad=0.4 pd=2.4 as=0.4 ps=2.4 w=2 l=0.15
X121 VOUT-.t39 cap_res_X.t118 sky130_fd_pr__cap_mim_m3_1 l=2 w=2
X122 VOUT+.t53 cap_res_Y.t104 sky130_fd_pr__cap_mim_m3_1 l=2 w=2
X123 VOUT+.t54 cap_res_Y.t103 sky130_fd_pr__cap_mim_m3_1 l=2 w=2
X124 VOUT-.t40 cap_res_X.t117 sky130_fd_pr__cap_mim_m3_1 l=2 w=2
X125 VD3.t8 Vb3.t9 VDDA.t110 VDDA.t109 sky130_fd_pr__pfet_01v8 ad=0.7 pd=3.9 as=0.7 ps=3.9 w=3.5 l=0.2
X126 VOUT-.t41 cap_res_X.t116 sky130_fd_pr__cap_mim_m3_1 l=2 w=2
X127 VOUT+.t55 cap_res_Y.t102 sky130_fd_pr__cap_mim_m3_1 l=2 w=2
X128 GNDA.t53 V_tail_gate.t8 V_source.t21 GNDA.t3 sky130_fd_pr__nfet_01v8 ad=0.5 pd=2.9 as=0.5 ps=2.9 w=2.5 l=0.15
X129 X.t22 VD3.t35 VD3.t37 VD3.t36 sky130_fd_pr__pfet_01v8 ad=0.7 pd=3.9 as=1.4 ps=7.8 w=3.5 l=0.2
X130 GNDA.t129 err_amp_mir.t18 err_amp_out.t10 GNDA.t128 sky130_fd_pr__nfet_01v8 ad=0.1 pd=0.9 as=0.1 ps=0.9 w=0.5 l=0.15
X131 VOUT-.t42 cap_res_X.t115 sky130_fd_pr__cap_mim_m3_1 l=2 w=2
X132 VOUT+.t56 cap_res_Y.t101 sky130_fd_pr__cap_mim_m3_1 l=2 w=2
X133 VOUT+.t57 cap_res_Y.t100 sky130_fd_pr__cap_mim_m3_1 l=2 w=2
X134 GNDA.t30 V_b_2nd_stage.t5 VOUT-.t1 GNDA.t9 sky130_fd_pr__nfet_01v8 ad=1.4 pd=7.4 as=1.4 ps=7.4 w=7 l=0.6
X135 VOUT+.t58 cap_res_Y.t99 sky130_fd_pr__cap_mim_m3_1 l=2 w=2
X136 V_CMFB_S4.t8 Y.t31 VDDA.t211 GNDA.t0 sky130_fd_pr__nfet_01v8 ad=0.6 pd=3.4 as=0.6 ps=3.4 w=3 l=0.15
X137 GNDA.t100 GNDA.t99 VDDA.t226 GNDA.t0 sky130_fd_pr__nfet_01v8 ad=1.2 pd=6.8 as=0.6 ps=3.4 w=3 l=0.15
X138 V_err_mir_p.t11 V_err_gate.t18 VDDA.t70 VDDA.t69 sky130_fd_pr__pfet_01v8 ad=0.1 pd=0.9 as=0.1 ps=0.9 w=0.5 l=0.15
X139 VOUT+.t59 cap_res_Y.t98 sky130_fd_pr__cap_mim_m3_1 l=2 w=2
X140 VOUT-.t43 cap_res_X.t114 sky130_fd_pr__cap_mim_m3_1 l=2 w=2
X141 VOUT+.t60 cap_res_Y.t97 sky130_fd_pr__cap_mim_m3_1 l=2 w=2
X142 V_err_p.t0 V_err_amp_ref.t3 err_amp_out.t0 VDDA.t1 sky130_fd_pr__pfet_01v8 ad=0.1 pd=0.9 as=0.1 ps=0.9 w=0.5 l=0.15
X143 VOUT+.t61 cap_res_Y.t96 sky130_fd_pr__cap_mim_m3_1 l=2 w=2
X144 V_CMFB_S3.t8 Y.t32 GNDA.t68 VDDA.t210 sky130_fd_pr__pfet_01v8 ad=0.4 pd=2.4 as=0.4 ps=2.4 w=2 l=0.15
X145 VOUT-.t44 cap_res_X.t113 sky130_fd_pr__cap_mim_m3_1 l=2 w=2
X146 VOUT-.t45 cap_res_X.t112 sky130_fd_pr__cap_mim_m3_1 l=2 w=2
X147 VOUT+.t62 cap_res_Y.t95 sky130_fd_pr__cap_mim_m3_1 l=2 w=2
X148 VOUT-.t13 X.t34 VDDA.t76 VDDA.t75 sky130_fd_pr__pfet_01v8 ad=1.2 pd=6.4 as=1.2 ps=6.4 w=6 l=0.15
X149 V_p_mir.t3 VIN-.t3 V_tail_gate.t1 GNDA.t8 sky130_fd_pr__nfet_01v8 ad=0.3 pd=1.9 as=0.3 ps=1.9 w=1.5 l=0.15
X150 VD2.t8 VIN+.t1 V_source.t22 GNDA.t8 sky130_fd_pr__nfet_01v8 ad=0.3 pd=1.9 as=0.3 ps=1.9 w=1.5 l=0.15
X151 VOUT-.t46 cap_res_X.t111 sky130_fd_pr__cap_mim_m3_1 l=2 w=2
X152 V_err_gate.t9 V_tot.t6 V_err_mir_p.t19 VDDA.t80 sky130_fd_pr__pfet_01v8 ad=0.1 pd=0.9 as=0.1 ps=0.9 w=0.5 l=0.15
X153 VOUT-.t47 cap_res_X.t110 sky130_fd_pr__cap_mim_m3_1 l=2 w=2
X154 GNDA.t45 V_b_2nd_stage.t6 VOUT-.t3 GNDA.t9 sky130_fd_pr__nfet_01v8 ad=1.4 pd=7.4 as=1.4 ps=7.4 w=7 l=0.6
X155 VD4.t9 Vb3.t10 VDDA.t108 VDDA.t107 sky130_fd_pr__pfet_01v8 ad=0.7 pd=3.9 as=0.7 ps=3.9 w=3.5 l=0.2
X156 V_source.t10 V_tail_gate.t9 GNDA.t23 GNDA.t3 sky130_fd_pr__nfet_01v8 ad=0.5 pd=2.9 as=0.5 ps=2.9 w=2.5 l=0.15
X157 Y.t10 Vb1.t5 VD2.t20 GNDA.t1 sky130_fd_pr__nfet_01v8 ad=0.3 pd=1.9 as=0.3 ps=1.9 w=1.5 l=0.15
X158 VOUT+.t63 cap_res_Y.t94 sky130_fd_pr__cap_mim_m3_1 l=2 w=2
X159 VOUT-.t48 cap_res_X.t109 sky130_fd_pr__cap_mim_m3_1 l=2 w=2
X160 VDDA.t170 VDDA.t167 VDDA.t169 VDDA.t168 sky130_fd_pr__pfet_01v8 ad=0.252 pd=2.06 as=0 ps=0 w=0.63 l=0.2
X161 VOUT+.t64 cap_res_Y.t93 sky130_fd_pr__cap_mim_m3_1 l=2 w=2
X162 VDDA.t0 X.t35 V_CMFB_S2.t7 GNDA.t0 sky130_fd_pr__nfet_01v8 ad=0.6 pd=3.4 as=0.6 ps=3.4 w=3 l=0.15
X163 VDDA.t64 V_err_gate.t19 V_err_p.t17 VDDA.t63 sky130_fd_pr__pfet_01v8 ad=0.1 pd=0.9 as=0.1 ps=0.9 w=0.5 l=0.15
X164 VOUT-.t49 cap_res_X.t108 sky130_fd_pr__cap_mim_m3_1 l=2 w=2
X165 VOUT-.t50 cap_res_X.t107 sky130_fd_pr__cap_mim_m3_1 l=2 w=2
X166 VOUT+.t65 cap_res_Y.t92 sky130_fd_pr__cap_mim_m3_1 l=2 w=2
X167 VOUT-.t51 cap_res_X.t106 sky130_fd_pr__cap_mim_m3_1 l=2 w=2
X168 VOUT-.t52 cap_res_X.t105 sky130_fd_pr__cap_mim_m3_1 l=2 w=2
X169 VOUT-.t53 cap_res_X.t104 sky130_fd_pr__cap_mim_m3_1 l=2 w=2
X170 err_amp_mir.t10 VDDA.t164 VDDA.t166 VDDA.t165 sky130_fd_pr__pfet_01v8 ad=0.1 pd=0.9 as=0.2 ps=1.8 w=0.5 l=0.15
X171 VDDA.t209 Y.t33 VOUT+.t11 VDDA.t208 sky130_fd_pr__pfet_01v8 ad=1.2 pd=6.4 as=1.2 ps=6.4 w=6 l=0.15
X172 GNDA.t54 VDDA.t161 VDDA.t163 VDDA.t162 sky130_fd_pr__pfet_01v8 ad=0.4 pd=2.4 as=0.8 ps=4.8 w=2 l=0.15
X173 VOUT-.t54 cap_res_X.t103 sky130_fd_pr__cap_mim_m3_1 l=2 w=2
X174 VD4.t0 Vb3.t11 VDDA.t104 VDDA.t103 sky130_fd_pr__pfet_01v8 ad=0.7 pd=3.9 as=0.7 ps=3.9 w=3.5 l=0.2
X175 VOUT-.t55 cap_res_X.t102 sky130_fd_pr__cap_mim_m3_1 l=2 w=2
X176 GNDA.t48 V_tail_gate.t10 V_source.t17 GNDA.t3 sky130_fd_pr__nfet_01v8 ad=0.5 pd=2.9 as=0.5 ps=2.9 w=2.5 l=0.15
X177 VOUT+.t66 cap_res_Y.t91 sky130_fd_pr__cap_mim_m3_1 l=2 w=2
X178 V_CMFB_S4.t7 Y.t34 VDDA.t207 GNDA.t0 sky130_fd_pr__nfet_01v8 ad=0.6 pd=3.4 as=0.6 ps=3.4 w=3 l=0.15
X179 VOUT-.t56 cap_res_X.t101 sky130_fd_pr__cap_mim_m3_1 l=2 w=2
X180 VOUT-.t57 cap_res_X.t100 sky130_fd_pr__cap_mim_m3_1 l=2 w=2
X181 VOUT-.t58 cap_res_X.t99 sky130_fd_pr__cap_mim_m3_1 l=2 w=2
X182 VOUT-.t59 cap_res_X.t98 sky130_fd_pr__cap_mim_m3_1 l=2 w=2
X183 VOUT+.t67 cap_res_Y.t90 sky130_fd_pr__cap_mim_m3_1 l=2 w=2
X184 VD4.t6 Vb3.t12 VDDA.t106 VDDA.t105 sky130_fd_pr__pfet_01v8 ad=0.7 pd=3.9 as=0.7 ps=3.9 w=3.5 l=0.2
X185 VOUT-.t60 cap_res_X.t97 sky130_fd_pr__cap_mim_m3_1 l=2 w=2
X186 VOUT+.t68 cap_res_Y.t89 sky130_fd_pr__cap_mim_m3_1 l=2 w=2
X187 V_err_p.t7 V_tot.t7 err_amp_mir.t14 VDDA.t65 sky130_fd_pr__pfet_01v8 ad=0.1 pd=0.9 as=0.1 ps=0.9 w=0.5 l=0.15
X188 X.t7 Vb1.t6 VD1.t7 GNDA.t1 sky130_fd_pr__nfet_01v8 ad=0.3 pd=1.9 as=0.3 ps=1.9 w=1.5 l=0.15
X189 X.t19 Vb2.t7 VD3.t29 VD3.t28 sky130_fd_pr__pfet_01v8 ad=0.7 pd=3.9 as=0.7 ps=3.9 w=3.5 l=0.2
X190 VD2.t4 VIN+.t2 V_source.t5 GNDA.t8 sky130_fd_pr__nfet_01v8 ad=0.3 pd=1.9 as=0.3 ps=1.9 w=1.5 l=0.15
X191 V_CMFB_S1.t7 X.t36 GNDA.t117 VDDA.t230 sky130_fd_pr__pfet_01v8 ad=0.4 pd=2.4 as=0.4 ps=2.4 w=2 l=0.15
X192 VOUT-.t4 a_116370_5430# VDDA.t67 VDDA.t66 sky130_fd_pr__pfet_01v8 ad=1.2 pd=6.4 as=2.4 ps=12.8 w=6 l=0.15
X193 V_CMFB_S3.t7 Y.t35 GNDA.t66 VDDA.t206 sky130_fd_pr__pfet_01v8 ad=0.4 pd=2.4 as=0.4 ps=2.4 w=2 l=0.15
X194 VOUT-.t61 cap_res_X.t96 sky130_fd_pr__cap_mim_m3_1 l=2 w=2
X195 VD1.t18 VIN-.t4 V_source.t31 GNDA.t8 sky130_fd_pr__nfet_01v8 ad=0.3 pd=1.9 as=0.3 ps=1.9 w=1.5 l=0.15
X196 VDDA.t102 Vb3.t13 VD3.t5 VDDA.t101 sky130_fd_pr__pfet_01v8 ad=0.7 pd=3.9 as=0.7 ps=3.9 w=3.5 l=0.2
X197 V_err_gate.t7 V_err_amp_ref.t4 V_err_mir_p.t2 VDDA.t73 sky130_fd_pr__pfet_01v8 ad=0.1 pd=0.9 as=0.1 ps=0.9 w=0.5 l=0.15
X198 VOUT+.t69 cap_res_Y.t88 sky130_fd_pr__cap_mim_m3_1 l=2 w=2
X199 VDDA.t160 VDDA.t158 Vb2.t0 VDDA.t159 sky130_fd_pr__pfet_01v8 ad=0.252 pd=2.06 as=0.126 ps=1.03 w=0.63 l=0.2
X200 Y.t0 Vb1.t7 VD2.t19 GNDA.t1 sky130_fd_pr__nfet_01v8 ad=0.3 pd=1.9 as=0.3 ps=1.9 w=1.5 l=0.15
X201 VOUT-.t62 cap_res_X.t95 sky130_fd_pr__cap_mim_m3_1 l=2 w=2
X202 V_p_mir.t2 V_tail_gate.t11 GNDA.t4 GNDA.t3 sky130_fd_pr__nfet_01v8 ad=0.5 pd=2.9 as=0.5 ps=2.9 w=2.5 l=0.15
X203 Y.t1 Vb1.t8 VD2.t18 GNDA.t1 sky130_fd_pr__nfet_01v8 ad=0.3 pd=1.9 as=0.3 ps=1.9 w=1.5 l=0.15
X204 VOUT+.t70 cap_res_Y.t87 sky130_fd_pr__cap_mim_m3_1 l=2 w=2
X205 VOUT+.t71 cap_res_Y.t86 sky130_fd_pr__cap_mim_m3_1 l=2 w=2
X206 VOUT-.t63 cap_res_X.t94 sky130_fd_pr__cap_mim_m3_1 l=2 w=2
X207 VOUT-.t64 cap_res_X.t93 sky130_fd_pr__cap_mim_m3_1 l=2 w=2
X208 VOUT+.t72 cap_res_Y.t85 sky130_fd_pr__cap_mim_m3_1 l=2 w=2
X209 VOUT-.t65 cap_res_X.t92 sky130_fd_pr__cap_mim_m3_1 l=2 w=2
X210 VOUT+.t73 cap_res_Y.t84 sky130_fd_pr__cap_mim_m3_1 l=2 w=2
X211 VD4.t32 Vb2.t8 Y.t16 VD4.t31 sky130_fd_pr__pfet_01v8 ad=0.7 pd=3.9 as=0.7 ps=3.9 w=3.5 l=0.2
X212 VDDA.t231 X.t37 V_CMFB_S2.t6 GNDA.t0 sky130_fd_pr__nfet_01v8 ad=0.6 pd=3.4 as=0.6 ps=3.4 w=3 l=0.15
X213 VOUT-.t66 cap_res_X.t91 sky130_fd_pr__cap_mim_m3_1 l=2 w=2
X214 VOUT-.t67 cap_res_X.t90 sky130_fd_pr__cap_mim_m3_1 l=2 w=2
X215 cap_res_X.t0 X.t9 GNDA.t52 sky130_fd_pr__res_high_po_1p41 l=1.41
X216 VDDA.t229 X.t38 VOUT-.t12 VDDA.t228 sky130_fd_pr__pfet_01v8 ad=1.2 pd=6.4 as=1.2 ps=6.4 w=6 l=0.15
X217 VDDA.t205 Y.t36 VOUT+.t10 VDDA.t204 sky130_fd_pr__pfet_01v8 ad=1.2 pd=6.4 as=1.2 ps=6.4 w=6 l=0.15
X218 VOUT-.t68 cap_res_X.t89 sky130_fd_pr__cap_mim_m3_1 l=2 w=2
X219 VDDA.t157 VDDA.t155 VD3.t0 VDDA.t156 sky130_fd_pr__pfet_01v8 ad=1.4 pd=7.8 as=0.7 ps=3.9 w=3.5 l=0.2
X220 VD3.t27 Vb2.t9 X.t18 VD3.t26 sky130_fd_pr__pfet_01v8 ad=0.7 pd=3.9 as=0.7 ps=3.9 w=3.5 l=0.2
X221 VOUT+.t74 cap_res_Y.t83 sky130_fd_pr__cap_mim_m3_1 l=2 w=2
X222 VOUT-.t69 cap_res_X.t88 sky130_fd_pr__cap_mim_m3_1 l=2 w=2
X223 VOUT+.t75 cap_res_Y.t82 sky130_fd_pr__cap_mim_m3_1 l=2 w=2
X224 VOUT-.t70 cap_res_X.t87 sky130_fd_pr__cap_mim_m3_1 l=2 w=2
X225 VOUT-.t71 cap_res_X.t86 sky130_fd_pr__cap_mim_m3_1 l=2 w=2
X226 V_CMFB_S4.t6 Y.t37 VDDA.t203 GNDA.t0 sky130_fd_pr__nfet_01v8 ad=0.6 pd=3.4 as=0.6 ps=3.4 w=3 l=0.15
X227 V_err_p.t16 V_err_gate.t20 VDDA.t250 VDDA.t249 sky130_fd_pr__pfet_01v8 ad=0.1 pd=0.9 as=0.1 ps=0.9 w=0.5 l=0.15
X228 VOUT+.t76 cap_res_Y.t81 sky130_fd_pr__cap_mim_m3_1 l=2 w=2
X229 X.t5 Vb1.t9 VD1.t5 GNDA.t1 sky130_fd_pr__nfet_01v8 ad=0.3 pd=1.9 as=0.3 ps=1.9 w=1.5 l=0.15
X230 X.t2 Vb1.t10 VD1.t2 GNDA.t1 sky130_fd_pr__nfet_01v8 ad=0.3 pd=1.9 as=0.3 ps=1.9 w=1.5 l=0.15
X231 V_b_2nd_stage.t0 a_109420_966.t0 GNDA.t11 sky130_fd_pr__res_xhigh_po_0p35 l=2.63
X232 VDDA.t154 VDDA.t152 err_amp_out.t6 VDDA.t153 sky130_fd_pr__pfet_01v8 ad=0.2 pd=1.8 as=0.1 ps=0.9 w=0.5 l=0.15
X233 VD1.t17 VIN-.t5 V_source.t32 GNDA.t8 sky130_fd_pr__nfet_01v8 ad=0.3 pd=1.9 as=0.3 ps=1.9 w=1.5 l=0.15
X234 V_CMFB_S1.t6 X.t39 GNDA.t118 VDDA.t232 sky130_fd_pr__pfet_01v8 ad=0.4 pd=2.4 as=0.4 ps=2.4 w=2 l=0.15
X235 VDDA.t151 VDDA.t149 GNDA.t126 VDDA.t150 sky130_fd_pr__pfet_01v8 ad=0.8 pd=4.8 as=0.4 ps=2.4 w=2 l=0.15
X236 VDDA.t100 Vb3.t14 VD4.t2 VDDA.t99 sky130_fd_pr__pfet_01v8 ad=0.7 pd=3.9 as=0.7 ps=3.9 w=3.5 l=0.2
X237 V_CMFB_S3.t6 Y.t38 GNDA.t65 VDDA.t202 sky130_fd_pr__pfet_01v8 ad=0.4 pd=2.4 as=0.4 ps=2.4 w=2 l=0.15
X238 VOUT-.t72 cap_res_X.t85 sky130_fd_pr__cap_mim_m3_1 l=2 w=2
X239 VOUT+.t77 cap_res_Y.t80 sky130_fd_pr__cap_mim_m3_1 l=2 w=2
X240 VD1.t16 VIN-.t6 V_source.t35 GNDA.t8 sky130_fd_pr__nfet_01v8 ad=0.3 pd=1.9 as=0.3 ps=1.9 w=1.5 l=0.15
X241 VOUT+.t78 cap_res_Y.t79 sky130_fd_pr__cap_mim_m3_1 l=2 w=2
X242 VOUT+.t79 cap_res_Y.t78 sky130_fd_pr__cap_mim_m3_1 l=2 w=2
X243 VD2.t7 VIN+.t3 V_source.t19 GNDA.t8 sky130_fd_pr__nfet_01v8 ad=0.3 pd=1.9 as=0.3 ps=1.9 w=1.5 l=0.15
X244 V_err_gate.t11 VDDA.t146 VDDA.t148 VDDA.t147 sky130_fd_pr__pfet_01v8 ad=0.1 pd=0.9 as=0.2 ps=1.8 w=0.5 l=0.15
X245 V_err_gate.t6 V_tot.t8 V_err_mir_p.t18 VDDA.t71 sky130_fd_pr__pfet_01v8 ad=0.1 pd=0.9 as=0.1 ps=0.9 w=0.5 l=0.15
X246 VOUT+.t80 cap_res_Y.t77 sky130_fd_pr__cap_mim_m3_1 l=2 w=2
X247 VOUT+.t81 cap_res_Y.t76 sky130_fd_pr__cap_mim_m3_1 l=2 w=2
X248 VOUT+.t82 cap_res_Y.t75 sky130_fd_pr__cap_mim_m3_1 l=2 w=2
X249 a_109020_3958.t1 V_tot.t0 GNDA.t7 sky130_fd_pr__res_xhigh_po_0p35 l=1.75
X250 Y.t23 Vb1.t11 VD2.t17 GNDA.t1 sky130_fd_pr__nfet_01v8 ad=0.3 pd=1.9 as=0.3 ps=1.9 w=1.5 l=0.15
X251 V_source.t39 V_tail_gate.t12 GNDA.t127 GNDA.t3 sky130_fd_pr__nfet_01v8 ad=0.5 pd=2.9 as=0.5 ps=2.9 w=2.5 l=0.15
X252 Vb2.t2 Vb2.t1 VDDA.t223 VDDA.t222 sky130_fd_pr__pfet_01v8 ad=0.126 pd=1.03 as=0.126 ps=1.03 w=0.63 l=0.2
X253 VOUT+.t83 cap_res_Y.t74 sky130_fd_pr__cap_mim_m3_1 l=2 w=2
X254 VOUT-.t73 cap_res_X.t84 sky130_fd_pr__cap_mim_m3_1 l=2 w=2
X255 VDDA.t225 GNDA.t97 GNDA.t98 GNDA.t0 sky130_fd_pr__nfet_01v8 ad=0.6 pd=3.4 as=1.2 ps=6.8 w=3 l=0.15
X256 VD3.t25 Vb2.t10 X.t17 VD3.t24 sky130_fd_pr__pfet_01v8 ad=0.7 pd=3.9 as=0.7 ps=3.9 w=3.5 l=0.2
X257 VDDA.t242 V_err_gate.t21 V_err_p.t15 VDDA.t241 sky130_fd_pr__pfet_01v8 ad=0.1 pd=0.9 as=0.1 ps=0.9 w=0.5 l=0.15
X258 Y.t3 VD4.t14 VD4.t16 VD4.t15 sky130_fd_pr__pfet_01v8 ad=0.7 pd=3.9 as=1.4 ps=7.8 w=3.5 l=0.2
X259 V_source.t33 VIN-.t7 VD1.t15 GNDA.t8 sky130_fd_pr__nfet_01v8 ad=0.3 pd=1.9 as=0.3 ps=1.9 w=1.5 l=0.15
X260 VDDA.t234 X.t40 VOUT-.t11 VDDA.t233 sky130_fd_pr__pfet_01v8 ad=1.2 pd=6.4 as=1.2 ps=6.4 w=6 l=0.15
X261 VOUT-.t74 cap_res_X.t83 sky130_fd_pr__cap_mim_m3_1 l=2 w=2
X262 VDDA.t78 a_117580_5430# VOUT-.t5 VDDA.t77 sky130_fd_pr__pfet_01v8 ad=2.4 pd=12.8 as=1.2 ps=6.4 w=6 l=0.15
X263 VOUT+.t84 cap_res_Y.t73 sky130_fd_pr__cap_mim_m3_1 l=2 w=2
X264 VOUT-.t75 cap_res_X.t82 sky130_fd_pr__cap_mim_m3_1 l=2 w=2
X265 VOUT+.t85 cap_res_Y.t72 sky130_fd_pr__cap_mim_m3_1 l=2 w=2
X266 VDDA.t201 Y.t39 VOUT+.t9 VDDA.t200 sky130_fd_pr__pfet_01v8 ad=1.2 pd=6.4 as=1.2 ps=6.4 w=6 l=0.15
X267 VOUT-.t6 a_117950_966.t1 GNDA.t39 sky130_fd_pr__res_xhigh_po_0p35 l=2.63
X268 VOUT+.t86 cap_res_Y.t71 sky130_fd_pr__cap_mim_m3_1 l=2 w=2
X269 VOUT-.t76 cap_res_X.t81 sky130_fd_pr__cap_mim_m3_1 l=2 w=2
X270 VOUT+.t87 cap_res_Y.t70 sky130_fd_pr__cap_mim_m3_1 l=2 w=2
X271 GNDA.t28 V_tail_gate.t13 V_source.t13 GNDA.t3 sky130_fd_pr__nfet_01v8 ad=0.5 pd=2.9 as=0.5 ps=2.9 w=2.5 l=0.15
X272 GNDA.t135 err_amp_mir.t19 err_amp_out.t11 GNDA.t134 sky130_fd_pr__nfet_01v8 ad=0.1 pd=0.9 as=0.1 ps=0.9 w=0.5 l=0.15
X273 VOUT+.t88 cap_res_Y.t69 sky130_fd_pr__cap_mim_m3_1 l=2 w=2
X274 VOUT-.t77 cap_res_X.t80 sky130_fd_pr__cap_mim_m3_1 l=2 w=2
X275 V_source.t20 Vb1.t0 Vb1.t1 GNDA.t50 sky130_fd_pr__nfet_01v8 ad=0.4 pd=2.8 as=0.4 ps=2.8 w=1 l=2.9
X276 VOUT+.t89 cap_res_Y.t68 sky130_fd_pr__cap_mim_m3_1 l=2 w=2
X277 V_CMFB_S2.t5 X.t41 VDDA.t235 GNDA.t0 sky130_fd_pr__nfet_01v8 ad=0.6 pd=3.4 as=0.6 ps=3.4 w=3 l=0.15
X278 VOUT+.t90 cap_res_Y.t67 sky130_fd_pr__cap_mim_m3_1 l=2 w=2
X279 VDDA.t98 Vb3.t15 VD4.t7 VDDA.t97 sky130_fd_pr__pfet_01v8 ad=0.7 pd=3.9 as=0.7 ps=3.9 w=3.5 l=0.2
X280 VOUT+.t91 cap_res_Y.t66 sky130_fd_pr__cap_mim_m3_1 l=2 w=2
X281 V_CMFB_S4.t5 Y.t40 VDDA.t197 GNDA.t0 sky130_fd_pr__nfet_01v8 ad=0.6 pd=3.4 as=0.6 ps=3.4 w=3 l=0.15
X282 V_err_mir_p.t10 V_err_gate.t22 VDDA.t246 VDDA.t245 sky130_fd_pr__pfet_01v8 ad=0.1 pd=0.9 as=0.1 ps=0.9 w=0.5 l=0.15
X283 VD3.t23 Vb2.t11 X.t16 VD3.t22 sky130_fd_pr__pfet_01v8 ad=0.7 pd=3.9 as=0.7 ps=3.9 w=3.5 l=0.2
X284 VOUT+.t92 cap_res_Y.t65 sky130_fd_pr__cap_mim_m3_1 l=2 w=2
X285 VOUT+.t93 cap_res_Y.t64 sky130_fd_pr__cap_mim_m3_1 l=2 w=2
X286 VOUT-.t78 cap_res_X.t79 sky130_fd_pr__cap_mim_m3_1 l=2 w=2
X287 VOUT+.t94 cap_res_Y.t63 sky130_fd_pr__cap_mim_m3_1 l=2 w=2
X288 X.t1 Vb1.t12 VD1.t1 GNDA.t1 sky130_fd_pr__nfet_01v8 ad=0.3 pd=1.9 as=0.3 ps=1.9 w=1.5 l=0.15
X289 VOUT+.t95 cap_res_Y.t62 sky130_fd_pr__cap_mim_m3_1 l=2 w=2
X290 V_err_p.t2 V_tot.t9 err_amp_mir.t13 VDDA.t13 sky130_fd_pr__pfet_01v8 ad=0.1 pd=0.9 as=0.1 ps=0.9 w=0.5 l=0.15
X291 VOUT+.t96 cap_res_Y.t61 sky130_fd_pr__cap_mim_m3_1 l=2 w=2
X292 VD3.t6 Vb3.t16 VDDA.t96 VDDA.t95 sky130_fd_pr__pfet_01v8 ad=0.7 pd=3.9 as=0.7 ps=3.9 w=3.5 l=0.2
X293 VD2.t11 GNDA.t95 GNDA.t96 GNDA.t8 sky130_fd_pr__nfet_01v8 ad=0.3 pd=1.9 as=0.6 ps=3.8 w=1.5 l=0.15
X294 V_CMFB_S1.t5 X.t42 GNDA.t35 VDDA.t30 sky130_fd_pr__pfet_01v8 ad=0.4 pd=2.4 as=0.4 ps=2.4 w=2 l=0.15
X295 VOUT+.t97 cap_res_Y.t60 sky130_fd_pr__cap_mim_m3_1 l=2 w=2
X296 VD2.t1 VIN+.t4 V_source.t2 GNDA.t8 sky130_fd_pr__nfet_01v8 ad=0.3 pd=1.9 as=0.3 ps=1.9 w=1.5 l=0.15
X297 VOUT-.t79 cap_res_X.t78 sky130_fd_pr__cap_mim_m3_1 l=2 w=2
X298 err_amp_mir.t7 err_amp_mir.t6 GNDA.t44 GNDA.t43 sky130_fd_pr__nfet_01v8 ad=0.1 pd=0.9 as=0.1 ps=0.9 w=0.5 l=0.15
X299 VOUT+.t98 cap_res_Y.t59 sky130_fd_pr__cap_mim_m3_1 l=2 w=2
X300 VOUT-.t80 cap_res_X.t77 sky130_fd_pr__cap_mim_m3_1 l=2 w=2
X301 Y.t20 Vb2.t12 VD4.t30 VD4.t29 sky130_fd_pr__pfet_01v8 ad=0.7 pd=3.9 as=0.7 ps=3.9 w=3.5 l=0.2
X302 Y.t5 Vb1.t13 VD2.t16 GNDA.t1 sky130_fd_pr__nfet_01v8 ad=0.3 pd=1.9 as=0.3 ps=1.9 w=1.5 l=0.15
X303 VOUT+.t99 cap_res_Y.t58 sky130_fd_pr__cap_mim_m3_1 l=2 w=2
X304 V_source.t15 V_tail_gate.t14 GNDA.t37 GNDA.t3 sky130_fd_pr__nfet_01v8 ad=0.5 pd=2.9 as=0.5 ps=2.9 w=2.5 l=0.15
X305 a_118270_3958.t0 V_CMFB_S2.t0 GNDA.t20 sky130_fd_pr__res_xhigh_po_0p35 l=1.75
X306 VOUT-.t81 cap_res_X.t76 sky130_fd_pr__cap_mim_m3_1 l=2 w=2
X307 VOUT+.t100 cap_res_Y.t57 sky130_fd_pr__cap_mim_m3_1 l=2 w=2
X308 VOUT-.t82 cap_res_X.t75 sky130_fd_pr__cap_mim_m3_1 l=2 w=2
X309 VOUT-.t83 cap_res_X.t74 sky130_fd_pr__cap_mim_m3_1 l=2 w=2
X310 X.t15 Vb2.t13 VD3.t21 VD3.t20 sky130_fd_pr__pfet_01v8 ad=0.7 pd=3.9 as=0.7 ps=3.9 w=3.5 l=0.2
X311 VDDA.t32 X.t43 VOUT-.t10 VDDA.t31 sky130_fd_pr__pfet_01v8 ad=1.2 pd=6.4 as=1.2 ps=6.4 w=6 l=0.15
X312 VOUT-.t84 cap_res_X.t73 sky130_fd_pr__cap_mim_m3_1 l=2 w=2
X313 VOUT-.t85 cap_res_X.t72 sky130_fd_pr__cap_mim_m3_1 l=2 w=2
X314 VDDA.t145 VDDA.t143 V_err_gate.t10 VDDA.t144 sky130_fd_pr__pfet_01v8 ad=0.2 pd=1.8 as=0.1 ps=0.9 w=0.5 l=0.15
X315 VOUT+.t101 cap_res_Y.t56 sky130_fd_pr__cap_mim_m3_1 l=2 w=2
X316 VOUT-.t86 cap_res_X.t71 sky130_fd_pr__cap_mim_m3_1 l=2 w=2
X317 GNDA.t40 V_tail_gate.t15 V_source.t16 GNDA.t3 sky130_fd_pr__nfet_01v8 ad=0.5 pd=2.9 as=0.5 ps=2.9 w=2.5 l=0.15
X318 Y.t17 Vb2.t14 VD4.t28 VD4.t27 sky130_fd_pr__pfet_01v8 ad=0.7 pd=3.9 as=0.7 ps=3.9 w=3.5 l=0.2
X319 VOUT-.t87 cap_res_X.t70 sky130_fd_pr__cap_mim_m3_1 l=2 w=2
X320 VOUT+.t102 cap_res_Y.t55 sky130_fd_pr__cap_mim_m3_1 l=2 w=2
X321 VOUT+.t103 cap_res_Y.t54 sky130_fd_pr__cap_mim_m3_1 l=2 w=2
X322 VOUT+.t104 cap_res_Y.t53 sky130_fd_pr__cap_mim_m3_1 l=2 w=2
X323 VOUT+.t105 cap_res_Y.t52 sky130_fd_pr__cap_mim_m3_1 l=2 w=2
X324 GNDA.t94 GNDA.t93 VDDA.t224 GNDA.t0 sky130_fd_pr__nfet_01v8 ad=1.2 pd=6.8 as=0.6 ps=3.4 w=3 l=0.15
X325 V_CMFB_S2.t4 X.t44 VDDA.t33 GNDA.t0 sky130_fd_pr__nfet_01v8 ad=0.6 pd=3.4 as=0.6 ps=3.4 w=3 l=0.15
X326 VOUT+.t106 cap_res_Y.t51 sky130_fd_pr__cap_mim_m3_1 l=2 w=2
X327 VOUT-.t88 cap_res_X.t69 sky130_fd_pr__cap_mim_m3_1 l=2 w=2
X328 VOUT+.t107 cap_res_Y.t50 sky130_fd_pr__cap_mim_m3_1 l=2 w=2
X329 VOUT+.t1 a_109420_966.t1 GNDA.t32 sky130_fd_pr__res_xhigh_po_0p35 l=2.63
X330 V_CMFB_S4.t4 Y.t41 VDDA.t199 GNDA.t0 sky130_fd_pr__nfet_01v8 ad=0.6 pd=3.4 as=0.6 ps=3.4 w=3 l=0.15
X331 V_err_p.t14 V_err_gate.t23 VDDA.t248 VDDA.t247 sky130_fd_pr__pfet_01v8 ad=0.1 pd=0.9 as=0.1 ps=0.9 w=0.5 l=0.15
X332 V_err_p.t13 V_err_gate.t24 VDDA.t41 VDDA.t40 sky130_fd_pr__pfet_01v8 ad=0.1 pd=0.9 as=0.1 ps=0.9 w=0.5 l=0.15
X333 VOUT-.t89 cap_res_X.t68 sky130_fd_pr__cap_mim_m3_1 l=2 w=2
X334 VOUT-.t90 cap_res_X.t67 sky130_fd_pr__cap_mim_m3_1 l=2 w=2
X335 X.t8 Vb1.t14 VD1.t8 GNDA.t1 sky130_fd_pr__nfet_01v8 ad=0.3 pd=1.9 as=0.3 ps=1.9 w=1.5 l=0.15
X336 a_118390_3958.t0 V_tot.t1 GNDA.t20 sky130_fd_pr__res_xhigh_po_0p35 l=1.75
X337 V_CMFB_S1.t4 X.t45 GNDA.t36 VDDA.t34 sky130_fd_pr__pfet_01v8 ad=0.4 pd=2.4 as=0.4 ps=2.4 w=2 l=0.15
X338 VD1.t14 VIN-.t8 V_source.t29 GNDA.t8 sky130_fd_pr__nfet_01v8 ad=0.3 pd=1.9 as=0.3 ps=1.9 w=1.5 l=0.15
X339 a_109020_3958.t0 V_CMFB_S3.t0 GNDA.t2 sky130_fd_pr__res_xhigh_po_0p35 l=1.75
X340 err_amp_out.t2 err_amp_mir.t20 GNDA.t42 GNDA.t41 sky130_fd_pr__nfet_01v8 ad=0.1 pd=0.9 as=0.1 ps=0.9 w=0.5 l=0.15
X341 VOUT+.t108 cap_res_Y.t49 sky130_fd_pr__cap_mim_m3_1 l=2 w=2
X342 VOUT+.t109 cap_res_Y.t48 sky130_fd_pr__cap_mim_m3_1 l=2 w=2