* NGSPICE file created from two_stage_opamp_dummy_magic_16.ext - technology: sky130A

.subckt two_stage_opamp_dummy_magic_16 VDDA V_CMFB_S1 V_CMFB_S3 Vb3 Vb2 Vb1 V_CMFB_S2
+ V_CMFB_S4 VOUT- VOUT+ V_tail_gate V_err_amp_ref V_err_gate VIN+ VIN- GNDA
X0 VOUT- cap_res_X sky130_fd_pr__cap_mim_m3_1 l=2 w=2
X1 VD1 VIN- V_source GNDA sky130_fd_pr__nfet_01v8 ad=0.3 pd=1.9 as=0.3 ps=1.9 w=1.5 l=0.15
X2 VDDA Vb3 VD3 VDDA sky130_fd_pr__pfet_01v8 ad=0.7 pd=3.9 as=0.7 ps=3.9 w=3.5 l=0.2
X3 VD1 Vb1 X GNDA sky130_fd_pr__nfet_01v8 ad=0.3 pd=1.9 as=0.3 ps=1.9 w=1.5 l=0.15
X4 VDDA X V_CMFB_S2 GNDA sky130_fd_pr__nfet_01v8 ad=0.6 pd=3.4 as=0.6 ps=3.4 w=3 l=0.15
X5 VOUT- cap_res_X sky130_fd_pr__cap_mim_m3_1 l=2 w=2
X6 VOUT+ cap_res_Y sky130_fd_pr__cap_mim_m3_1 l=2 w=2
X7 VOUT- X VDDA VDDA sky130_fd_pr__pfet_01v8 ad=1.2 pd=6.4 as=1.2 ps=6.4 w=6 l=0.15
X8 VOUT+ cap_res_Y sky130_fd_pr__cap_mim_m3_1 l=2 w=2
X9 VD4 VD4 Y VD4 sky130_fd_pr__pfet_01v8 ad=1.4 pd=7.8 as=0.7 ps=3.9 w=3.5 l=0.2
X10 VOUT- cap_res_X sky130_fd_pr__cap_mim_m3_1 l=2 w=2
X11 VOUT+ cap_res_Y sky130_fd_pr__cap_mim_m3_1 l=2 w=2
X12 VOUT+ cap_res_Y sky130_fd_pr__cap_mim_m3_1 l=2 w=2
X13 VOUT- cap_res_X sky130_fd_pr__cap_mim_m3_1 l=2 w=2
X14 VDDA Vb3 VD4 VDDA sky130_fd_pr__pfet_01v8 ad=0.7 pd=3.9 as=0.7 ps=3.9 w=3.5 l=0.2
X15 VDDA VDDA GNDA VDDA sky130_fd_pr__pfet_01v8 ad=0.8 pd=4.8 as=0.4 ps=2.4 w=2 l=0.15
X16 VOUT+ cap_res_Y sky130_fd_pr__cap_mim_m3_1 l=2 w=2
X17 X Vb2 VD3 VD3 sky130_fd_pr__pfet_01v8 ad=0.7 pd=3.9 as=0.7 ps=3.9 w=3.5 l=0.2
X18 VOUT+ Y VDDA VDDA sky130_fd_pr__pfet_01v8 ad=1.2 pd=6.4 as=1.2 ps=6.4 w=6 l=0.15
X19 VDDA Vb3 VD3 VDDA sky130_fd_pr__pfet_01v8 ad=0.7 pd=3.9 as=0.7 ps=3.9 w=3.5 l=0.2
X20 VDDA Vb3 VD4 VDDA sky130_fd_pr__pfet_01v8 ad=0.7 pd=3.9 as=0.7 ps=3.9 w=3.5 l=0.2
X21 VDDA V_err_gate V_err_mir_p VDDA sky130_fd_pr__pfet_01v8 ad=0.5 pd=2.9 as=0.5 ps=2.9 w=2.5 l=0.15
X22 V_err_p V_tot err_amp_mir VDDA sky130_fd_pr__pfet_01v8 ad=0.5 pd=2.9 as=0.5 ps=2.9 w=2.5 l=0.15
X23 VD2 Vb1 Y GNDA sky130_fd_pr__nfet_01v8 ad=0.3 pd=1.9 as=0.3 ps=1.9 w=1.5 l=0.15
X24 VOUT- cap_res_X sky130_fd_pr__cap_mim_m3_1 l=2 w=2
X25 GNDA GNDA VOUT- GNDA sky130_fd_pr__nfet_01v8 ad=2.8 pd=14.8 as=1.4 ps=7.4 w=7 l=0.6
X26 VOUT- cap_res_X sky130_fd_pr__cap_mim_m3_1 l=2 w=2
X27 VOUT+ cap_res_Y sky130_fd_pr__cap_mim_m3_1 l=2 w=2
X28 VD4 Vb3 VDDA VDDA sky130_fd_pr__pfet_01v8 ad=0.7 pd=3.9 as=0.7 ps=3.9 w=3.5 l=0.2
X29 GNDA GNDA Y GNDA sky130_fd_pr__nfet_01v8 ad=0.6 pd=3.8 as=0.3 ps=1.9 w=1.5 l=0.15
X30 VOUT- cap_res_X sky130_fd_pr__cap_mim_m3_1 l=2 w=2
X31 VOUT- cap_res_X sky130_fd_pr__cap_mim_m3_1 l=2 w=2
X32 VDDA Vb3 VD3 VDDA sky130_fd_pr__pfet_01v8 ad=0.7 pd=3.9 as=0.7 ps=3.9 w=3.5 l=0.2
X33 VDDA VDDA VDDA VDDA sky130_fd_pr__pfet_01v8 ad=0.72 pd=4.4 as=68.76 ps=379 w=1.8 l=0.2
X34 VOUT+ cap_res_Y sky130_fd_pr__cap_mim_m3_1 l=2 w=2
X35 VOUT+ cap_res_Y sky130_fd_pr__cap_mim_m3_1 l=2 w=2
X36 GNDA Y V_CMFB_S3 VDDA sky130_fd_pr__pfet_01v8 ad=0.4 pd=2.4 as=0.4 ps=2.4 w=2 l=0.15
X37 X Vb2 VD3 VD3 sky130_fd_pr__pfet_01v8 ad=0.7 pd=3.9 as=0.7 ps=3.9 w=3.5 l=0.2
X38 GNDA GNDA err_amp_out GNDA sky130_fd_pr__nfet_01v8 ad=1 pd=5.8 as=0.5 ps=2.9 w=2.5 l=0.15
X39 VOUT- GNDA GNDA GNDA sky130_fd_pr__nfet_01v8 ad=1.4 pd=7.4 as=2.8 ps=14.8 w=7 l=0.6
X40 V_source V_tail_gate GNDA GNDA sky130_fd_pr__nfet_01v8 ad=0.5 pd=2.9 as=0.5 ps=2.9 w=2.5 l=0.15
X41 GNDA V_tail_gate V_p_mir GNDA sky130_fd_pr__nfet_01v8 ad=0.5 pd=2.9 as=0.5 ps=2.9 w=2.5 l=0.15
X42 VOUT- cap_res_X sky130_fd_pr__cap_mim_m3_1 l=2 w=2
X43 VD2 VIN+ V_source GNDA sky130_fd_pr__nfet_01v8 ad=0.3 pd=1.9 as=0.3 ps=1.9 w=1.5 l=0.15
X44 VOUT- cap_res_X sky130_fd_pr__cap_mim_m3_1 l=2 w=2
X45 VOUT+ cap_res_Y sky130_fd_pr__cap_mim_m3_1 l=2 w=2
X46 VDDA X V_CMFB_S2 GNDA sky130_fd_pr__nfet_01v8 ad=0.6 pd=3.4 as=0.6 ps=3.4 w=3 l=0.15
X47 VDDA VDDA VDDA VDDA sky130_fd_pr__pfet_01v8 ad=0.7 pd=3.9 as=0 ps=0 w=3.5 l=0.2
X48 VOUT+ cap_res_Y sky130_fd_pr__cap_mim_m3_1 l=2 w=2
X49 VOUT- cap_res_X sky130_fd_pr__cap_mim_m3_1 l=2 w=2
X50 V_b_2nd_stage a_n2420_n2210# GNDA sky130_fd_pr__res_xhigh_po_0p35 l=2.63
X51 VOUT- X VDDA VDDA sky130_fd_pr__pfet_01v8 ad=1.2 pd=6.4 as=1.2 ps=6.4 w=6 l=0.15
X52 VOUT+ cap_res_Y sky130_fd_pr__cap_mim_m3_1 l=2 w=2
X53 VOUT- cap_res_X sky130_fd_pr__cap_mim_m3_1 l=2 w=2
X54 VOUT- cap_res_X sky130_fd_pr__cap_mim_m3_1 l=2 w=2
X55 VOUT- cap_res_X sky130_fd_pr__cap_mim_m3_1 l=2 w=2
X56 VOUT+ cap_res_Y sky130_fd_pr__cap_mim_m3_1 l=2 w=2
X57 VOUT- cap_res_X sky130_fd_pr__cap_mim_m3_1 l=2 w=2
X58 VDDA VDDA VD3 VDDA sky130_fd_pr__pfet_01v8 ad=1.4 pd=7.8 as=0.7 ps=3.9 w=3.5 l=0.2
X59 a_n2700_594# V_CMFB_S3 GNDA sky130_fd_pr__res_xhigh_po_0p35 l=1.75
X60 V_source V_tail_gate GNDA GNDA sky130_fd_pr__nfet_01v8 ad=0.5 pd=2.9 as=0.5 ps=2.9 w=2.5 l=0.15
X61 V_source err_amp_out GNDA GNDA sky130_fd_pr__nfet_01v8 ad=0.5 pd=2.9 as=0.5 ps=2.9 w=2.5 l=0.15
X62 VD2 GNDA GNDA GNDA sky130_fd_pr__nfet_01v8 ad=0.3 pd=1.9 as=0.6 ps=3.8 w=1.5 l=0.15
X63 VOUT+ cap_res_Y sky130_fd_pr__cap_mim_m3_1 l=2 w=2
X64 VD1 Vb1 X GNDA sky130_fd_pr__nfet_01v8 ad=0.3 pd=1.9 as=0.3 ps=1.9 w=1.5 l=0.15
X65 Y Vb2 VD4 VD4 sky130_fd_pr__pfet_01v8 ad=0.7 pd=3.9 as=0.7 ps=3.9 w=3.5 l=0.2
X66 VDDA GNDA GNDA GNDA sky130_fd_pr__nfet_01v8 ad=0.6 pd=3.4 as=1.2 ps=6.8 w=3 l=0.15
X67 VOUT+ Y VDDA VDDA sky130_fd_pr__pfet_01v8 ad=1.2 pd=6.4 as=1.2 ps=6.4 w=6 l=0.15
X68 VOUT- cap_res_X sky130_fd_pr__cap_mim_m3_1 l=2 w=2
X69 VOUT- cap_res_X sky130_fd_pr__cap_mim_m3_1 l=2 w=2
X70 VOUT+ cap_res_Y sky130_fd_pr__cap_mim_m3_1 l=2 w=2
X71 VD3 Vb2 X VD3 sky130_fd_pr__pfet_01v8 ad=0.7 pd=3.9 as=0.7 ps=3.9 w=3.5 l=0.2
X72 VOUT- cap_res_X sky130_fd_pr__cap_mim_m3_1 l=2 w=2
X73 VOUT+ cap_res_Y sky130_fd_pr__cap_mim_m3_1 l=2 w=2
X74 VOUT- cap_res_X sky130_fd_pr__cap_mim_m3_1 l=2 w=2
X75 VOUT+ cap_res_Y sky130_fd_pr__cap_mim_m3_1 l=2 w=2
X76 VDDA VDDA Vb2_2 VDDA sky130_fd_pr__pfet_01v8 ad=0.72 pd=4.4 as=0.36 ps=2.2 w=1.8 l=0.2
X77 VOUT- cap_res_X sky130_fd_pr__cap_mim_m3_1 l=2 w=2
X78 VOUT+ cap_res_Y sky130_fd_pr__cap_mim_m3_1 l=2 w=2
X79 VOUT- cap_res_X sky130_fd_pr__cap_mim_m3_1 l=2 w=2
X80 VOUT- cap_res_X sky130_fd_pr__cap_mim_m3_1 l=2 w=2
X81 Vb2_Vb3 Vb2_Vb3 Vb2_Vb3 Vb2_Vb3 sky130_fd_pr__pfet_01v8 ad=1.4 pd=7.8 as=5.6 ps=31.2 w=3.5 l=0.2
X82 VOUT- cap_res_X sky130_fd_pr__cap_mim_m3_1 l=2 w=2
X83 VDDA Y VOUT+ VDDA sky130_fd_pr__pfet_01v8 ad=1.2 pd=6.4 as=1.2 ps=6.4 w=6 l=0.15
X84 GNDA err_amp_mir err_amp_mir GNDA sky130_fd_pr__nfet_01v8 ad=0.5 pd=2.9 as=0.5 ps=2.9 w=2.5 l=0.15
X85 VD3 Vb3 VDDA VDDA sky130_fd_pr__pfet_01v8 ad=0.7 pd=3.9 as=0.7 ps=3.9 w=3.5 l=0.2
X86 VD2 Vb1 Y GNDA sky130_fd_pr__nfet_01v8 ad=0.3 pd=1.9 as=0.3 ps=1.9 w=1.5 l=0.15
X87 VOUT+ cap_res_Y sky130_fd_pr__cap_mim_m3_1 l=2 w=2
X88 VOUT- cap_res_X sky130_fd_pr__cap_mim_m3_1 l=2 w=2
X89 VOUT+ cap_res_Y sky130_fd_pr__cap_mim_m3_1 l=2 w=2
X90 VOUT+ cap_res_Y sky130_fd_pr__cap_mim_m3_1 l=2 w=2
X91 VOUT- cap_res_X sky130_fd_pr__cap_mim_m3_1 l=2 w=2
X92 VD1 VIN- V_source GNDA sky130_fd_pr__nfet_01v8 ad=0.3 pd=1.9 as=0.3 ps=1.9 w=1.5 l=0.15
X93 GNDA X V_CMFB_S1 VDDA sky130_fd_pr__pfet_01v8 ad=0.4 pd=2.4 as=0.4 ps=2.4 w=2 l=0.15
X94 VOUT- cap_res_X sky130_fd_pr__cap_mim_m3_1 l=2 w=2
X95 GNDA GNDA VOUT+ GNDA sky130_fd_pr__nfet_01v8 ad=2.8 pd=14.8 as=1.4 ps=7.4 w=7 l=0.6
X96 VD2 Vb1 Y GNDA sky130_fd_pr__nfet_01v8 ad=0.3 pd=1.9 as=0.3 ps=1.9 w=1.5 l=0.15
X97 VDDA X V_CMFB_S2 GNDA sky130_fd_pr__nfet_01v8 ad=0.6 pd=3.4 as=0.6 ps=3.4 w=3 l=0.15
X98 VOUT+ cap_res_Y sky130_fd_pr__cap_mim_m3_1 l=2 w=2
X99 GNDA Y V_CMFB_S3 VDDA sky130_fd_pr__pfet_01v8 ad=0.4 pd=2.4 as=0.4 ps=2.4 w=2 l=0.15
X100 VDDA VDDA GNDA VDDA sky130_fd_pr__pfet_01v8 ad=0.8 pd=4.8 as=0.4 ps=2.4 w=2 l=0.15
X101 VD4 Vb3 VDDA VDDA sky130_fd_pr__pfet_01v8 ad=0.7 pd=3.9 as=0.7 ps=3.9 w=3.5 l=0.2
X102 Y GNDA GNDA GNDA sky130_fd_pr__nfet_01v8 ad=0.3 pd=1.9 as=0.6 ps=3.8 w=1.5 l=0.15
X103 VOUT+ cap_res_Y sky130_fd_pr__cap_mim_m3_1 l=2 w=2
X104 VD3 Vb2 X VD3 sky130_fd_pr__pfet_01v8 ad=0.7 pd=3.9 as=0.7 ps=3.9 w=3.5 l=0.2
X105 VD1 VIN- V_source GNDA sky130_fd_pr__nfet_01v8 ad=0.3 pd=1.9 as=0.3 ps=1.9 w=1.5 l=0.15
X106 VOUT+ cap_res_Y sky130_fd_pr__cap_mim_m3_1 l=2 w=2
X107 VDDA Y V_CMFB_S4 GNDA sky130_fd_pr__nfet_01v8 ad=0.6 pd=3.4 as=0.6 ps=3.4 w=3 l=0.15
X108 VD2 Vb1 Y GNDA sky130_fd_pr__nfet_01v8 ad=0.3 pd=1.9 as=0.3 ps=1.9 w=1.5 l=0.15
X109 VOUT- cap_res_X sky130_fd_pr__cap_mim_m3_1 l=2 w=2
X110 VOUT+ Y VDDA VDDA sky130_fd_pr__pfet_01v8 ad=1.2 pd=6.4 as=1.2 ps=6.4 w=6 l=0.15
X111 VOUT+ cap_res_Y sky130_fd_pr__cap_mim_m3_1 l=2 w=2
X112 VOUT+ cap_res_Y sky130_fd_pr__cap_mim_m3_1 l=2 w=2
X113 GNDA GNDA VD1 GNDA sky130_fd_pr__nfet_01v8 ad=0.6 pd=3.8 as=0.3 ps=1.9 w=1.5 l=0.15
X114 VOUT- cap_res_X sky130_fd_pr__cap_mim_m3_1 l=2 w=2
X115 VOUT+ cap_res_Y sky130_fd_pr__cap_mim_m3_1 l=2 w=2
X116 GNDA X V_CMFB_S1 VDDA sky130_fd_pr__pfet_01v8 ad=0.4 pd=2.4 as=0.4 ps=2.4 w=2 l=0.15
X117 GNDA Y V_CMFB_S3 VDDA sky130_fd_pr__pfet_01v8 ad=0.4 pd=2.4 as=0.4 ps=2.4 w=2 l=0.15
X118 VDDA VDDA err_amp_out VDDA sky130_fd_pr__pfet_01v8 ad=1 pd=5.8 as=0.5 ps=2.9 w=2.5 l=0.15
X119 GNDA V_tail_gate V_source GNDA sky130_fd_pr__nfet_01v8 ad=0.5 pd=2.9 as=0.5 ps=2.9 w=2.5 l=0.15
X120 V_source V_tail_gate GNDA GNDA sky130_fd_pr__nfet_01v8 ad=0.5 pd=2.9 as=0.5 ps=2.9 w=2.5 l=0.15
X121 VD1 Vb1 X GNDA sky130_fd_pr__nfet_01v8 ad=0.3 pd=1.9 as=0.3 ps=1.9 w=1.5 l=0.15
X122 VOUT- cap_res_X sky130_fd_pr__cap_mim_m3_1 l=2 w=2
X123 VOUT- cap_res_X sky130_fd_pr__cap_mim_m3_1 l=2 w=2
X124 V_source V_tail_gate GNDA GNDA sky130_fd_pr__nfet_01v8 ad=0.5 pd=2.9 as=0.5 ps=2.9 w=2.5 l=0.15
X125 VOUT+ cap_res_Y sky130_fd_pr__cap_mim_m3_1 l=2 w=2
X126 VD3 Vb3 VDDA VDDA sky130_fd_pr__pfet_01v8 ad=0.7 pd=3.9 as=0.7 ps=3.9 w=3.5 l=0.2
X127 VOUT+ Y VDDA VDDA sky130_fd_pr__pfet_01v8 ad=1.2 pd=6.4 as=1.2 ps=6.4 w=6 l=0.15
X128 VD3 VD3 X VD3 sky130_fd_pr__pfet_01v8 ad=1.4 pd=7.8 as=0.7 ps=3.9 w=3.5 l=0.2
X129 VOUT- V_b_2nd_stage GNDA GNDA sky130_fd_pr__nfet_01v8 ad=1.4 pd=7.4 as=1.4 ps=7.4 w=7 l=0.6
X130 VOUT- cap_res_X sky130_fd_pr__cap_mim_m3_1 l=2 w=2
X131 VOUT- cap_res_X sky130_fd_pr__cap_mim_m3_1 l=2 w=2
X132 VOUT- cap_res_X sky130_fd_pr__cap_mim_m3_1 l=2 w=2
X133 VOUT+ cap_res_Y sky130_fd_pr__cap_mim_m3_1 l=2 w=2
X134 VOUT+ cap_res_Y sky130_fd_pr__cap_mim_m3_1 l=2 w=2
X135 VOUT+ GNDA GNDA GNDA sky130_fd_pr__nfet_01v8 ad=1.4 pd=7.4 as=2.8 ps=14.8 w=7 l=0.6
X136 VOUT- cap_res_X sky130_fd_pr__cap_mim_m3_1 l=2 w=2
X137 VD2 GNDA GNDA GNDA sky130_fd_pr__nfet_01v8 ad=0.3 pd=1.9 as=0.6 ps=3.8 w=1.5 l=0.15
X138 VOUT- cap_res_X sky130_fd_pr__cap_mim_m3_1 l=2 w=2
X139 VOUT- cap_res_X sky130_fd_pr__cap_mim_m3_1 l=2 w=2
X140 a_1210_n2200# Vb1 Vb1 GNDA sky130_fd_pr__nfet_01v8 ad=0.3 pd=1.9 as=0.3 ps=1.9 w=1.5 l=0.15
X141 VOUT- cap_res_X sky130_fd_pr__cap_mim_m3_1 l=2 w=2
X142 GNDA GNDA Vb1 GNDA sky130_fd_pr__nfet_01v8 ad=0.6 pd=3.8 as=0.3 ps=1.9 w=1.5 l=0.15
X143 VDDA X V_CMFB_S2 GNDA sky130_fd_pr__nfet_01v8 ad=0.6 pd=3.4 as=0.6 ps=3.4 w=3 l=0.15
X144 VOUT- X VDDA VDDA sky130_fd_pr__pfet_01v8 ad=1.2 pd=6.4 as=1.2 ps=6.4 w=6 l=0.15
X145 VOUT- cap_res_X sky130_fd_pr__cap_mim_m3_1 l=2 w=2
X146 VOUT+ cap_res_Y sky130_fd_pr__cap_mim_m3_1 l=2 w=2
X147 VOUT+ cap_res_Y sky130_fd_pr__cap_mim_m3_1 l=2 w=2
X148 V_source Vb1 a_1210_n2200# GNDA sky130_fd_pr__nfet_01v8 ad=0.6 pd=3.8 as=0.6 ps=3.8 w=1.5 l=3
X149 a_5770_594# V_CMFB_S2 GNDA sky130_fd_pr__res_xhigh_po_0p35 l=1.75
X150 VOUT- cap_res_X sky130_fd_pr__cap_mim_m3_1 l=2 w=2
X151 VD2 Vb1 Y GNDA sky130_fd_pr__nfet_01v8 ad=0.3 pd=1.9 as=0.3 ps=1.9 w=1.5 l=0.15
X152 VD4 Vb2 Y VD4 sky130_fd_pr__pfet_01v8 ad=0.7 pd=3.9 as=0.7 ps=3.9 w=3.5 l=0.2
X153 VOUT+ cap_res_Y sky130_fd_pr__cap_mim_m3_1 l=2 w=2
X154 VD2 VIN+ V_source GNDA sky130_fd_pr__nfet_01v8 ad=0.3 pd=1.9 as=0.3 ps=1.9 w=1.5 l=0.15
X155 GNDA VDDA VDDA VDDA sky130_fd_pr__pfet_01v8 ad=0.4 pd=2.4 as=0.8 ps=4.8 w=2 l=0.15
X156 VDDA Y V_CMFB_S4 GNDA sky130_fd_pr__nfet_01v8 ad=0.6 pd=3.4 as=0.6 ps=3.4 w=3 l=0.15
X157 VOUT+ cap_res_Y sky130_fd_pr__cap_mim_m3_1 l=2 w=2
X158 V_tail_gate VIN+ V_p_mir GNDA sky130_fd_pr__nfet_01v8 ad=0.3 pd=1.9 as=0.3 ps=1.9 w=1.5 l=0.15
X159 V_source VIN+ VD2 GNDA sky130_fd_pr__nfet_01v8 ad=0.3 pd=1.9 as=0.3 ps=1.9 w=1.5 l=0.15
X160 GNDA Y V_CMFB_S3 VDDA sky130_fd_pr__pfet_01v8 ad=0.4 pd=2.4 as=0.4 ps=2.4 w=2 l=0.15
X161 VOUT- cap_res_X sky130_fd_pr__cap_mim_m3_1 l=2 w=2
X162 V_CMFB_S1 X GNDA VDDA sky130_fd_pr__pfet_01v8 ad=0.4 pd=2.4 as=0.4 ps=2.4 w=2 l=0.15
X163 a_n2700_594# V_tot GNDA sky130_fd_pr__res_xhigh_po_0p35 l=1.75
X164 VDDA X VOUT- VDDA sky130_fd_pr__pfet_01v8 ad=1.2 pd=6.4 as=1.2 ps=6.4 w=6 l=0.15
X165 VOUT- cap_res_X sky130_fd_pr__cap_mim_m3_1 l=2 w=2
X166 VOUT- cap_res_X sky130_fd_pr__cap_mim_m3_1 l=2 w=2
X167 VOUT- cap_res_X sky130_fd_pr__cap_mim_m3_1 l=2 w=2
X168 VOUT+ cap_res_Y sky130_fd_pr__cap_mim_m3_1 l=2 w=2
X169 V_err_p V_err_gate VDDA VDDA sky130_fd_pr__pfet_01v8 ad=0.5 pd=2.9 as=0.5 ps=2.9 w=2.5 l=0.15
X170 VOUT- cap_res_X sky130_fd_pr__cap_mim_m3_1 l=2 w=2
X171 VOUT- cap_res_X sky130_fd_pr__cap_mim_m3_1 l=2 w=2
X172 VOUT+ cap_res_Y sky130_fd_pr__cap_mim_m3_1 l=2 w=2
X173 VOUT+ cap_res_Y sky130_fd_pr__cap_mim_m3_1 l=2 w=2
X174 GNDA X V_CMFB_S1 VDDA sky130_fd_pr__pfet_01v8 ad=0.4 pd=2.4 as=0.4 ps=2.4 w=2 l=0.15
X175 V_CMFB_S4 Y VDDA GNDA sky130_fd_pr__nfet_01v8 ad=0.6 pd=3.4 as=0.6 ps=3.4 w=3 l=0.15
X176 VOUT+ cap_res_Y sky130_fd_pr__cap_mim_m3_1 l=2 w=2
X177 VOUT+ a_n2420_n2210# GNDA sky130_fd_pr__res_xhigh_po_0p35 l=2.63
X178 VD1 Vb1 X GNDA sky130_fd_pr__nfet_01v8 ad=0.3 pd=1.9 as=0.3 ps=1.9 w=1.5 l=0.15
X179 VOUT- cap_res_X sky130_fd_pr__cap_mim_m3_1 l=2 w=2
X180 VOUT- cap_res_X sky130_fd_pr__cap_mim_m3_1 l=2 w=2
X181 VOUT- cap_res_X sky130_fd_pr__cap_mim_m3_1 l=2 w=2
X182 VD4 Vb2 Y VD4 sky130_fd_pr__pfet_01v8 ad=0.7 pd=3.9 as=0.7 ps=3.9 w=3.5 l=0.2
X183 VOUT+ cap_res_Y sky130_fd_pr__cap_mim_m3_1 l=2 w=2
X184 VOUT+ cap_res_Y sky130_fd_pr__cap_mim_m3_1 l=2 w=2
X185 VOUT- cap_res_X sky130_fd_pr__cap_mim_m3_1 l=2 w=2
X186 VDDA Vb3 VD4 VDDA sky130_fd_pr__pfet_01v8 ad=0.7 pd=3.9 as=0.7 ps=3.9 w=3.5 l=0.2
X187 VOUT- VDDA VDDA VDDA sky130_fd_pr__pfet_01v8 ad=1.2 pd=6.4 as=2.4 ps=12.8 w=6 l=0.15
X188 X Vb1 VD1 GNDA sky130_fd_pr__nfet_01v8 ad=0.3 pd=1.9 as=0.3 ps=1.9 w=1.5 l=0.15
X189 VOUT+ cap_res_Y sky130_fd_pr__cap_mim_m3_1 l=2 w=2
X190 VOUT- cap_res_X sky130_fd_pr__cap_mim_m3_1 l=2 w=2
X191 X Vb2 VD3 VD3 sky130_fd_pr__pfet_01v8 ad=0.7 pd=3.9 as=0.7 ps=3.9 w=3.5 l=0.2
X192 VOUT+ cap_res_Y sky130_fd_pr__cap_mim_m3_1 l=2 w=2
X193 VOUT+ cap_res_Y sky130_fd_pr__cap_mim_m3_1 l=2 w=2
X194 VOUT- cap_res_X sky130_fd_pr__cap_mim_m3_1 l=2 w=2
X195 VOUT+ cap_res_Y sky130_fd_pr__cap_mim_m3_1 l=2 w=2
X196 VD1 VIN- V_source GNDA sky130_fd_pr__nfet_01v8 ad=0.3 pd=1.9 as=0.3 ps=1.9 w=1.5 l=0.15
X197 VDDA Y V_CMFB_S4 GNDA sky130_fd_pr__nfet_01v8 ad=0.6 pd=3.4 as=0.6 ps=3.4 w=3 l=0.15
X198 VOUT- cap_res_X sky130_fd_pr__cap_mim_m3_1 l=2 w=2
X199 VOUT- cap_res_X sky130_fd_pr__cap_mim_m3_1 l=2 w=2
X200 VOUT- cap_res_X sky130_fd_pr__cap_mim_m3_1 l=2 w=2
X201 VOUT+ cap_res_Y sky130_fd_pr__cap_mim_m3_1 l=2 w=2
X202 V_tail_gate GNDA GNDA GNDA sky130_fd_pr__nfet_01v8 ad=0.3 pd=1.9 as=0.6 ps=3.8 w=1.5 l=0.15
X203 VOUT- cap_res_X sky130_fd_pr__cap_mim_m3_1 l=2 w=2
X204 VOUT- a_5610_n2210# GNDA sky130_fd_pr__res_xhigh_po_0p35 l=2.63
X205 GNDA GNDA VD1 GNDA sky130_fd_pr__nfet_01v8 ad=0.6 pd=3.8 as=0.3 ps=1.9 w=1.5 l=0.15
X206 VOUT- cap_res_X sky130_fd_pr__cap_mim_m3_1 l=2 w=2
X207 VDDA X VOUT- VDDA sky130_fd_pr__pfet_01v8 ad=1.2 pd=6.4 as=1.2 ps=6.4 w=6 l=0.15
X208 VDDA Vb3 VD3 VDDA sky130_fd_pr__pfet_01v8 ad=0.7 pd=3.9 as=0.7 ps=3.9 w=3.5 l=0.2
X209 VOUT- cap_res_X sky130_fd_pr__cap_mim_m3_1 l=2 w=2
X210 VOUT+ cap_res_Y sky130_fd_pr__cap_mim_m3_1 l=2 w=2
X211 VOUT+ cap_res_Y sky130_fd_pr__cap_mim_m3_1 l=2 w=2
X212 VDDA Y V_CMFB_S4 GNDA sky130_fd_pr__nfet_01v8 ad=0.6 pd=3.4 as=0.6 ps=3.4 w=3 l=0.15
X213 VOUT+ cap_res_Y sky130_fd_pr__cap_mim_m3_1 l=2 w=2
X214 V_source VIN- VD1 GNDA sky130_fd_pr__nfet_01v8 ad=0.3 pd=1.9 as=0.3 ps=1.9 w=1.5 l=0.15
X215 VOUT- cap_res_X sky130_fd_pr__cap_mim_m3_1 l=2 w=2
X216 VOUT+ cap_res_Y sky130_fd_pr__cap_mim_m3_1 l=2 w=2
X217 GNDA V_tail_gate V_source GNDA sky130_fd_pr__nfet_01v8 ad=0.5 pd=2.9 as=0.5 ps=2.9 w=2.5 l=0.15
X218 VOUT- cap_res_X sky130_fd_pr__cap_mim_m3_1 l=2 w=2
X219 V_p_mir V_tail_gate GNDA GNDA sky130_fd_pr__nfet_01v8 ad=0.5 pd=2.9 as=0.5 ps=2.9 w=2.5 l=0.15
X220 V_err_gate VDDA VDDA VDDA sky130_fd_pr__pfet_01v8 ad=0.5 pd=2.9 as=1 ps=5.8 w=2.5 l=0.15
X221 VOUT+ cap_res_Y sky130_fd_pr__cap_mim_m3_1 l=2 w=2
X222 VOUT- cap_res_X sky130_fd_pr__cap_mim_m3_1 l=2 w=2
X223 VOUT- cap_res_X sky130_fd_pr__cap_mim_m3_1 l=2 w=2
X224 GNDA V_b_2nd_stage VOUT+ GNDA sky130_fd_pr__nfet_01v8 ad=1.4 pd=7.4 as=1.4 ps=7.4 w=7 l=0.6
X225 VDDA VDDA V_err_gate VDDA sky130_fd_pr__pfet_01v8 ad=1 pd=5.8 as=0.5 ps=2.9 w=2.5 l=0.15
X226 VOUT+ cap_res_Y sky130_fd_pr__cap_mim_m3_1 l=2 w=2
X227 VDDA X V_CMFB_S2 GNDA sky130_fd_pr__nfet_01v8 ad=0.6 pd=3.4 as=0.6 ps=3.4 w=3 l=0.15
X228 Y Vb2 VD4 VD4 sky130_fd_pr__pfet_01v8 ad=0.7 pd=3.9 as=0.7 ps=3.9 w=3.5 l=0.2
X229 VOUT- cap_res_X sky130_fd_pr__cap_mim_m3_1 l=2 w=2
X230 VOUT- cap_res_X sky130_fd_pr__cap_mim_m3_1 l=2 w=2
X231 V_source V_tail_gate GNDA GNDA sky130_fd_pr__nfet_01v8 ad=0.5 pd=2.9 as=0.5 ps=2.9 w=2.5 l=0.15
X232 GNDA V_tail_gate V_source GNDA sky130_fd_pr__nfet_01v8 ad=0.5 pd=2.9 as=0.5 ps=2.9 w=2.5 l=0.15
X233 GNDA V_tail_gate V_source GNDA sky130_fd_pr__nfet_01v8 ad=0.5 pd=2.9 as=0.5 ps=2.9 w=2.5 l=0.15
X234 X Vb1 VD1 GNDA sky130_fd_pr__nfet_01v8 ad=0.3 pd=1.9 as=0.3 ps=1.9 w=1.5 l=0.15
X235 VOUT- cap_res_X sky130_fd_pr__cap_mim_m3_1 l=2 w=2
X236 VOUT+ cap_res_Y sky130_fd_pr__cap_mim_m3_1 l=2 w=2
X237 VOUT- cap_res_X sky130_fd_pr__cap_mim_m3_1 l=2 w=2
X238 a_5890_594# V_CMFB_S1 GNDA sky130_fd_pr__res_xhigh_po_0p35 l=1.75
X239 VOUT+ cap_res_Y sky130_fd_pr__cap_mim_m3_1 l=2 w=2
X240 V_source VIN- VD1 GNDA sky130_fd_pr__nfet_01v8 ad=0.3 pd=1.9 as=0.3 ps=1.9 w=1.5 l=0.15
X241 VOUT+ cap_res_Y sky130_fd_pr__cap_mim_m3_1 l=2 w=2
X242 VOUT+ cap_res_Y sky130_fd_pr__cap_mim_m3_1 l=2 w=2
X243 V_CMFB_S2 X VDDA GNDA sky130_fd_pr__nfet_01v8 ad=0.6 pd=3.4 as=0.6 ps=3.4 w=3 l=0.15
X244 V_source VIN+ VD2 GNDA sky130_fd_pr__nfet_01v8 ad=0.3 pd=1.9 as=0.3 ps=1.9 w=1.5 l=0.15
X245 VDDA X VOUT- VDDA sky130_fd_pr__pfet_01v8 ad=1.2 pd=6.4 as=1.2 ps=6.4 w=6 l=0.15
X246 VDDA VDDA VOUT- VDDA sky130_fd_pr__pfet_01v8 ad=2.4 pd=12.8 as=1.2 ps=6.4 w=6 l=0.15
X247 VOUT+ cap_res_Y sky130_fd_pr__cap_mim_m3_1 l=2 w=2
X248 VOUT- cap_res_X sky130_fd_pr__cap_mim_m3_1 l=2 w=2
X249 VOUT- cap_res_X sky130_fd_pr__cap_mim_m3_1 l=2 w=2
X250 GNDA Y V_CMFB_S3 VDDA sky130_fd_pr__pfet_01v8 ad=0.4 pd=2.4 as=0.4 ps=2.4 w=2 l=0.15
X251 VOUT+ cap_res_Y sky130_fd_pr__cap_mim_m3_1 l=2 w=2
X252 VOUT+ cap_res_Y sky130_fd_pr__cap_mim_m3_1 l=2 w=2
X253 Vb2 Vb2_2 Vb2_2 Vb2_2 sky130_fd_pr__pfet_01v8 ad=0.7 pd=3.9 as=1.4 ps=7.8 w=3.5 l=0.2
X254 VOUT- cap_res_X sky130_fd_pr__cap_mim_m3_1 l=2 w=2
X255 cap_res_X X GNDA sky130_fd_pr__res_high_po_1p41 l=1.41
X256 VOUT- cap_res_X sky130_fd_pr__cap_mim_m3_1 l=2 w=2
X257 VOUT+ cap_res_Y sky130_fd_pr__cap_mim_m3_1 l=2 w=2
X258 VDDA Y VOUT+ VDDA sky130_fd_pr__pfet_01v8 ad=1.2 pd=6.4 as=1.2 ps=6.4 w=6 l=0.15
X259 VOUT- cap_res_X sky130_fd_pr__cap_mim_m3_1 l=2 w=2
X260 VOUT- cap_res_X sky130_fd_pr__cap_mim_m3_1 l=2 w=2
X261 Y Vb1 VD2 GNDA sky130_fd_pr__nfet_01v8 ad=0.3 pd=1.9 as=0.3 ps=1.9 w=1.5 l=0.15
X262 VOUT+ cap_res_Y sky130_fd_pr__cap_mim_m3_1 l=2 w=2
X263 VOUT+ cap_res_Y sky130_fd_pr__cap_mim_m3_1 l=2 w=2
X264 Y Vb2 VD4 VD4 sky130_fd_pr__pfet_01v8 ad=0.7 pd=3.9 as=0.7 ps=3.9 w=3.5 l=0.2
X265 VD4 Vb3 VDDA VDDA sky130_fd_pr__pfet_01v8 ad=0.7 pd=3.9 as=0.7 ps=3.9 w=3.5 l=0.2
X266 VOUT- cap_res_X sky130_fd_pr__cap_mim_m3_1 l=2 w=2
X267 V_err_mir_p V_err_gate VDDA VDDA sky130_fd_pr__pfet_01v8 ad=0.5 pd=2.9 as=0.5 ps=2.9 w=2.5 l=0.15
X268 VOUT- cap_res_X sky130_fd_pr__cap_mim_m3_1 l=2 w=2
X269 VDDA GNDA GNDA GNDA sky130_fd_pr__nfet_01v8 ad=0.6 pd=3.4 as=1.2 ps=6.8 w=3 l=0.15
X270 VD3 Vb2 X VD3 sky130_fd_pr__pfet_01v8 ad=0.7 pd=3.9 as=0.7 ps=3.9 w=3.5 l=0.2
X271 VOUT+ cap_res_Y sky130_fd_pr__cap_mim_m3_1 l=2 w=2
X272 VOUT+ cap_res_Y sky130_fd_pr__cap_mim_m3_1 l=2 w=2
X273 V_CMFB_S3 Y GNDA VDDA sky130_fd_pr__pfet_01v8 ad=0.4 pd=2.4 as=0.4 ps=2.4 w=2 l=0.15
X274 VOUT- cap_res_X sky130_fd_pr__cap_mim_m3_1 l=2 w=2
X275 VOUT+ cap_res_Y sky130_fd_pr__cap_mim_m3_1 l=2 w=2
X276 VD3 VDDA VDDA VDDA sky130_fd_pr__pfet_01v8 ad=0.7 pd=3.9 as=1.4 ps=7.8 w=3.5 l=0.2
X277 VOUT+ cap_res_Y sky130_fd_pr__cap_mim_m3_1 l=2 w=2
X278 VOUT- cap_res_X sky130_fd_pr__cap_mim_m3_1 l=2 w=2
X279 GNDA V_b_2nd_stage VOUT- GNDA sky130_fd_pr__nfet_01v8 ad=1.4 pd=7.4 as=1.4 ps=7.4 w=7 l=0.6
X280 VOUT+ cap_res_Y sky130_fd_pr__cap_mim_m3_1 l=2 w=2
X281 VOUT- cap_res_X sky130_fd_pr__cap_mim_m3_1 l=2 w=2
X282 VOUT+ cap_res_Y sky130_fd_pr__cap_mim_m3_1 l=2 w=2
X283 VOUT- cap_res_X sky130_fd_pr__cap_mim_m3_1 l=2 w=2
X284 V_source VIN+ VD2 GNDA sky130_fd_pr__nfet_01v8 ad=0.3 pd=1.9 as=0.3 ps=1.9 w=1.5 l=0.15
X285 VD4 VDDA VDDA VDDA sky130_fd_pr__pfet_01v8 ad=0.7 pd=3.9 as=1.4 ps=7.8 w=3.5 l=0.2
X286 V_CMFB_S2 X VDDA GNDA sky130_fd_pr__nfet_01v8 ad=0.6 pd=3.4 as=0.6 ps=3.4 w=3 l=0.15
X287 VOUT+ cap_res_Y sky130_fd_pr__cap_mim_m3_1 l=2 w=2
X288 VDDA X VOUT- VDDA sky130_fd_pr__pfet_01v8 ad=1.2 pd=6.4 as=1.2 ps=6.4 w=6 l=0.15
X289 V_source V_tail_gate GNDA GNDA sky130_fd_pr__nfet_01v8 ad=0.5 pd=2.9 as=0.5 ps=2.9 w=2.5 l=0.15
X290 V_source V_tail_gate GNDA GNDA sky130_fd_pr__nfet_01v8 ad=0.5 pd=2.9 as=0.5 ps=2.9 w=2.5 l=0.15
X291 GNDA V_tail_gate V_source GNDA sky130_fd_pr__nfet_01v8 ad=0.5 pd=2.9 as=0.5 ps=2.9 w=2.5 l=0.15
X292 VOUT- cap_res_X sky130_fd_pr__cap_mim_m3_1 l=2 w=2
X293 GNDA V_tail_gate V_source GNDA sky130_fd_pr__nfet_01v8 ad=0.5 pd=2.9 as=0.5 ps=2.9 w=2.5 l=0.15
X294 X Vb1 VD1 GNDA sky130_fd_pr__nfet_01v8 ad=0.3 pd=1.9 as=0.3 ps=1.9 w=1.5 l=0.15
X295 VOUT- cap_res_X sky130_fd_pr__cap_mim_m3_1 l=2 w=2
X296 VOUT+ cap_res_Y sky130_fd_pr__cap_mim_m3_1 l=2 w=2
X297 VOUT+ cap_res_Y sky130_fd_pr__cap_mim_m3_1 l=2 w=2
X298 VD4 Vb3 VDDA VDDA sky130_fd_pr__pfet_01v8 ad=0.7 pd=3.9 as=0.7 ps=3.9 w=3.5 l=0.2
X299 VOUT+ cap_res_Y sky130_fd_pr__cap_mim_m3_1 l=2 w=2
X300 VOUT+ cap_res_Y sky130_fd_pr__cap_mim_m3_1 l=2 w=2
X301 VDDA Y VOUT+ VDDA sky130_fd_pr__pfet_01v8 ad=1.2 pd=6.4 as=1.2 ps=6.4 w=6 l=0.15
X302 VOUT- cap_res_X sky130_fd_pr__cap_mim_m3_1 l=2 w=2
X303 VOUT- cap_res_X sky130_fd_pr__cap_mim_m3_1 l=2 w=2
X304 VOUT- cap_res_X sky130_fd_pr__cap_mim_m3_1 l=2 w=2
X305 VOUT+ cap_res_Y sky130_fd_pr__cap_mim_m3_1 l=2 w=2
X306 VOUT+ cap_res_Y sky130_fd_pr__cap_mim_m3_1 l=2 w=2
X307 VOUT+ cap_res_Y sky130_fd_pr__cap_mim_m3_1 l=2 w=2
X308 Vb1 GNDA GNDA GNDA sky130_fd_pr__nfet_01v8 ad=0.3 pd=1.9 as=0.6 ps=3.8 w=1.5 l=0.15
X309 err_amp_mir VDDA VDDA VDDA sky130_fd_pr__pfet_01v8 ad=0.5 pd=2.9 as=1 ps=5.8 w=2.5 l=0.15
X310 Vb1 Vb1 a_1210_n2200# GNDA sky130_fd_pr__nfet_01v8 ad=0.3 pd=1.9 as=0.3 ps=1.9 w=1.5 l=0.15
X311 VOUT- cap_res_X sky130_fd_pr__cap_mim_m3_1 l=2 w=2
X312 VOUT+ cap_res_Y sky130_fd_pr__cap_mim_m3_1 l=2 w=2
X313 VOUT+ cap_res_Y sky130_fd_pr__cap_mim_m3_1 l=2 w=2
X314 VOUT+ cap_res_Y sky130_fd_pr__cap_mim_m3_1 l=2 w=2
X315 VOUT+ cap_res_Y sky130_fd_pr__cap_mim_m3_1 l=2 w=2
X316 VOUT+ V_b_2nd_stage GNDA GNDA sky130_fd_pr__nfet_01v8 ad=1.4 pd=7.4 as=1.4 ps=7.4 w=7 l=0.6
X317 Y Vb1 VD2 GNDA sky130_fd_pr__nfet_01v8 ad=0.3 pd=1.9 as=0.3 ps=1.9 w=1.5 l=0.15
X318 VOUT- cap_res_X sky130_fd_pr__cap_mim_m3_1 l=2 w=2
X319 VOUT+ cap_res_Y sky130_fd_pr__cap_mim_m3_1 l=2 w=2
X320 err_amp_out err_amp_mir GNDA GNDA sky130_fd_pr__nfet_01v8 ad=0.5 pd=2.9 as=0.5 ps=2.9 w=2.5 l=0.15
X321 Y Vb1 VD2 GNDA sky130_fd_pr__nfet_01v8 ad=0.3 pd=1.9 as=0.3 ps=1.9 w=1.5 l=0.15
X322 VOUT- cap_res_X sky130_fd_pr__cap_mim_m3_1 l=2 w=2
X323 VOUT- cap_res_X sky130_fd_pr__cap_mim_m3_1 l=2 w=2
X324 V_CMFB_S3 Y GNDA VDDA sky130_fd_pr__pfet_01v8 ad=0.4 pd=2.4 as=0.4 ps=2.4 w=2 l=0.15
X325 VOUT+ cap_res_Y sky130_fd_pr__cap_mim_m3_1 l=2 w=2
X326 VOUT+ cap_res_Y sky130_fd_pr__cap_mim_m3_1 l=2 w=2
X327 VOUT+ cap_res_Y sky130_fd_pr__cap_mim_m3_1 l=2 w=2
X328 VOUT- cap_res_X sky130_fd_pr__cap_mim_m3_1 l=2 w=2
X329 V_source VIN- VD1 GNDA sky130_fd_pr__nfet_01v8 ad=0.3 pd=1.9 as=0.3 ps=1.9 w=1.5 l=0.15
X330 VOUT- cap_res_X sky130_fd_pr__cap_mim_m3_1 l=2 w=2
X331 VOUT- cap_res_X sky130_fd_pr__cap_mim_m3_1 l=2 w=2
X332 V_CMFB_S2 X VDDA GNDA sky130_fd_pr__nfet_01v8 ad=0.6 pd=3.4 as=0.6 ps=3.4 w=3 l=0.15
X333 VOUT+ cap_res_Y sky130_fd_pr__cap_mim_m3_1 l=2 w=2
X334 GNDA GNDA VDDA GNDA sky130_fd_pr__nfet_01v8 ad=1.2 pd=6.8 as=0.6 ps=3.4 w=3 l=0.15
X335 VOUT+ cap_res_Y sky130_fd_pr__cap_mim_m3_1 l=2 w=2
X336 Vb2_2 Vb2 Vb2 Vb2_2 sky130_fd_pr__pfet_01v8 ad=0.7 pd=3.9 as=0.7 ps=3.9 w=3.5 l=0.2
X337 VOUT+ cap_res_Y sky130_fd_pr__cap_mim_m3_1 l=2 w=2
X338 VOUT- cap_res_X sky130_fd_pr__cap_mim_m3_1 l=2 w=2
X339 VOUT+ cap_res_Y sky130_fd_pr__cap_mim_m3_1 l=2 w=2
X340 Y Vb1 VD2 GNDA sky130_fd_pr__nfet_01v8 ad=0.3 pd=1.9 as=0.3 ps=1.9 w=1.5 l=0.15
X341 Vb3 Vb2 Vb2_Vb3 Vb2_Vb3 sky130_fd_pr__pfet_01v8 ad=0.7 pd=3.9 as=0.7 ps=3.9 w=3.5 l=0.2
X342 X VD3 VD3 VD3 sky130_fd_pr__pfet_01v8 ad=0.7 pd=3.9 as=1.4 ps=7.8 w=3.5 l=0.2
X343 a_5890_594# V_tot GNDA sky130_fd_pr__res_xhigh_po_0p35 l=1.75
X344 V_CMFB_S4 Y VDDA GNDA sky130_fd_pr__nfet_01v8 ad=0.6 pd=3.4 as=0.6 ps=3.4 w=3 l=0.15
X345 VD4 Vb2 Y VD4 sky130_fd_pr__pfet_01v8 ad=0.7 pd=3.9 as=0.7 ps=3.9 w=3.5 l=0.2
X346 VOUT- cap_res_X sky130_fd_pr__cap_mim_m3_1 l=2 w=2
X347 V_CMFB_S1 X GNDA VDDA sky130_fd_pr__pfet_01v8 ad=0.4 pd=2.4 as=0.4 ps=2.4 w=2 l=0.15
X348 VOUT+ cap_res_Y sky130_fd_pr__cap_mim_m3_1 l=2 w=2
X349 VOUT+ cap_res_Y sky130_fd_pr__cap_mim_m3_1 l=2 w=2
X350 VDDA Y VOUT+ VDDA sky130_fd_pr__pfet_01v8 ad=1.2 pd=6.4 as=1.2 ps=6.4 w=6 l=0.15
X351 VOUT- cap_res_X sky130_fd_pr__cap_mim_m3_1 l=2 w=2
X352 VDDA Vb3 VD4 VDDA sky130_fd_pr__pfet_01v8 ad=0.7 pd=3.9 as=0.7 ps=3.9 w=3.5 l=0.2
X353 V_CMFB_S3 Y GNDA VDDA sky130_fd_pr__pfet_01v8 ad=0.4 pd=2.4 as=0.4 ps=2.4 w=2 l=0.15
X354 VOUT- cap_res_X sky130_fd_pr__cap_mim_m3_1 l=2 w=2
X355 X Vb2 VD3 VD3 sky130_fd_pr__pfet_01v8 ad=0.7 pd=3.9 as=0.7 ps=3.9 w=3.5 l=0.2
X356 X Vb1 VD1 GNDA sky130_fd_pr__nfet_01v8 ad=0.3 pd=1.9 as=0.3 ps=1.9 w=1.5 l=0.15
X357 VOUT+ cap_res_Y sky130_fd_pr__cap_mim_m3_1 l=2 w=2
X358 VOUT+ cap_res_Y sky130_fd_pr__cap_mim_m3_1 l=2 w=2
X359 VOUT- cap_res_X sky130_fd_pr__cap_mim_m3_1 l=2 w=2
X360 VDDA Vb3 VD3 VDDA sky130_fd_pr__pfet_01v8 ad=0.7 pd=3.9 as=0.7 ps=3.9 w=3.5 l=0.2
X361 VOUT- cap_res_X sky130_fd_pr__cap_mim_m3_1 l=2 w=2
X362 VOUT+ cap_res_Y sky130_fd_pr__cap_mim_m3_1 l=2 w=2
X363 VOUT+ Y VDDA VDDA sky130_fd_pr__pfet_01v8 ad=1.2 pd=6.4 as=1.2 ps=6.4 w=6 l=0.15
X364 err_amp_mir GNDA GNDA GNDA sky130_fd_pr__nfet_01v8 ad=0.5 pd=2.9 as=1 ps=5.8 w=2.5 l=0.15
X365 VOUT- cap_res_X sky130_fd_pr__cap_mim_m3_1 l=2 w=2
X366 VOUT+ cap_res_Y sky130_fd_pr__cap_mim_m3_1 l=2 w=2
X367 VOUT- cap_res_X sky130_fd_pr__cap_mim_m3_1 l=2 w=2
X368 VOUT- V_b_2nd_stage GNDA GNDA sky130_fd_pr__nfet_01v8 ad=1.4 pd=7.4 as=1.4 ps=7.4 w=7 l=0.6
X369 VOUT+ cap_res_Y sky130_fd_pr__cap_mim_m3_1 l=2 w=2
X370 V_source VIN+ VD2 GNDA sky130_fd_pr__nfet_01v8 ad=0.3 pd=1.9 as=0.3 ps=1.9 w=1.5 l=0.15
X371 Y Vb1 VD2 GNDA sky130_fd_pr__nfet_01v8 ad=0.3 pd=1.9 as=0.3 ps=1.9 w=1.5 l=0.15
X372 V_CMFB_S2 X VDDA GNDA sky130_fd_pr__nfet_01v8 ad=0.6 pd=3.4 as=0.6 ps=3.4 w=3 l=0.15
X373 VOUT- cap_res_X sky130_fd_pr__cap_mim_m3_1 l=2 w=2
X374 VOUT+ cap_res_Y sky130_fd_pr__cap_mim_m3_1 l=2 w=2
X375 VOUT- cap_res_X sky130_fd_pr__cap_mim_m3_1 l=2 w=2
X376 VOUT- cap_res_X sky130_fd_pr__cap_mim_m3_1 l=2 w=2
X377 VOUT- cap_res_X sky130_fd_pr__cap_mim_m3_1 l=2 w=2
X378 VOUT+ cap_res_Y sky130_fd_pr__cap_mim_m3_1 l=2 w=2
X379 V_CMFB_S1 X GNDA VDDA sky130_fd_pr__pfet_01v8 ad=0.4 pd=2.4 as=0.4 ps=2.4 w=2 l=0.15
X380 VDDA Vb3 VD4 VDDA sky130_fd_pr__pfet_01v8 ad=0.7 pd=3.9 as=0.7 ps=3.9 w=3.5 l=0.2
X381 VOUT- cap_res_X sky130_fd_pr__cap_mim_m3_1 l=2 w=2
X382 V_source VIN+ VD2 GNDA sky130_fd_pr__nfet_01v8 ad=0.3 pd=1.9 as=0.3 ps=1.9 w=1.5 l=0.15
X383 V_CMFB_S3 Y GNDA VDDA sky130_fd_pr__pfet_01v8 ad=0.4 pd=2.4 as=0.4 ps=2.4 w=2 l=0.15
X384 cap_res_Y Y GNDA sky130_fd_pr__res_high_po_1p41 l=1.41
X385 VOUT+ cap_res_Y sky130_fd_pr__cap_mim_m3_1 l=2 w=2
X386 V_CMFB_S4 Y VDDA GNDA sky130_fd_pr__nfet_01v8 ad=0.6 pd=3.4 as=0.6 ps=3.4 w=3 l=0.15
X387 GNDA X V_CMFB_S1 VDDA sky130_fd_pr__pfet_01v8 ad=0.4 pd=2.4 as=0.4 ps=2.4 w=2 l=0.15
X388 VOUT- cap_res_X sky130_fd_pr__cap_mim_m3_1 l=2 w=2
X389 VOUT- cap_res_X sky130_fd_pr__cap_mim_m3_1 l=2 w=2
X390 a_n2820_594# V_tot GNDA sky130_fd_pr__res_xhigh_po_0p35 l=1.75
X391 V_source V_tail_gate GNDA GNDA sky130_fd_pr__nfet_01v8 ad=0.5 pd=2.9 as=0.5 ps=2.9 w=2.5 l=0.15
X392 VDDA Y VOUT+ VDDA sky130_fd_pr__pfet_01v8 ad=1.2 pd=6.4 as=1.2 ps=6.4 w=6 l=0.15
X393 VOUT+ cap_res_Y sky130_fd_pr__cap_mim_m3_1 l=2 w=2
X394 VOUT+ cap_res_Y sky130_fd_pr__cap_mim_m3_1 l=2 w=2
X395 GNDA GNDA GNDA GNDA sky130_fd_pr__nfet_01v8 ad=1 pd=5.8 as=50.4 ps=284 w=2.5 l=0.15
X396 GNDA GNDA V_tail_gate GNDA sky130_fd_pr__nfet_01v8 ad=0.6 pd=3.8 as=0.3 ps=1.9 w=1.5 l=0.15
X397 VD1 VIN- V_source GNDA sky130_fd_pr__nfet_01v8 ad=0.3 pd=1.9 as=0.3 ps=1.9 w=1.5 l=0.15
X398 VOUT+ cap_res_Y sky130_fd_pr__cap_mim_m3_1 l=2 w=2
X399 VOUT- cap_res_X sky130_fd_pr__cap_mim_m3_1 l=2 w=2
X400 VOUT- cap_res_X sky130_fd_pr__cap_mim_m3_1 l=2 w=2
X401 VOUT+ cap_res_Y sky130_fd_pr__cap_mim_m3_1 l=2 w=2
X402 VOUT+ cap_res_Y sky130_fd_pr__cap_mim_m3_1 l=2 w=2
X403 err_amp_out V_err_amp_ref V_err_p VDDA sky130_fd_pr__pfet_01v8 ad=0.5 pd=2.9 as=0.5 ps=2.9 w=2.5 l=0.15
X404 V_CMFB_S1 X GNDA VDDA sky130_fd_pr__pfet_01v8 ad=0.4 pd=2.4 as=0.4 ps=2.4 w=2 l=0.15
X405 VOUT- cap_res_X sky130_fd_pr__cap_mim_m3_1 l=2 w=2
X406 Vb2_Vb3 VDDA VDDA VDDA sky130_fd_pr__pfet_01v8 ad=0.7 pd=3.9 as=1.4 ps=7.8 w=3.5 l=0.2
X407 VDDA VDDA VOUT+ VDDA sky130_fd_pr__pfet_01v8 ad=2.4 pd=12.8 as=1.2 ps=6.4 w=6 l=0.15
X408 VOUT+ cap_res_Y sky130_fd_pr__cap_mim_m3_1 l=2 w=2
X409 GNDA V_tail_gate V_source GNDA sky130_fd_pr__nfet_01v8 ad=0.5 pd=2.9 as=0.5 ps=2.9 w=2.5 l=0.15
X410 VOUT+ cap_res_Y sky130_fd_pr__cap_mim_m3_1 l=2 w=2
X411 GNDA GNDA V_source GNDA sky130_fd_pr__nfet_01v8 ad=1 pd=5.8 as=0.5 ps=2.9 w=2.5 l=0.15