* NGSPICE file created from two_stage_opamp_dummy_magic_2.ext - technology: sky130A

.subckt two_stage_opamp_dummy_magic_2 VDDA V_CMFB_S1 V_CMFB_S3 Vb3 Vb2 Vb1 V_CMFB_S2
+ V_CMFB_S4 VOUT- VOUT+ V_tail_gate V_err_amp_ref V_err_gate VIN+ VIN- GNDA
X0 VOUT- cap_res_X sky130_fd_pr__cap_mim_m3_1 l=2 w=2
X1 VOUT- cap_res_X sky130_fd_pr__cap_mim_m3_1 l=2 w=2
X2 VOUT- cap_res_X sky130_fd_pr__cap_mim_m3_1 l=2 w=2
X3 VD4 VDDA VDDA VDDA sky130_fd_pr__pfet_01v8 ad=0.7 pd=3.9 as=1.4 ps=7.8 w=3.5 l=0.2
X4 VDDA X VOUT- VDDA sky130_fd_pr__pfet_01v8 ad=1.2 pd=6.4 as=1.2 ps=6.4 w=6 l=0.15
X5 GNDA VDDA VDDA VDDA sky130_fd_pr__pfet_01v8 ad=0.4 pd=2.4 as=0.8 ps=4.8 w=2 l=0.15
X6 VOUT+ cap_res_Y sky130_fd_pr__cap_mim_m3_1 l=2 w=2
X7 VOUT+ cap_res_Y sky130_fd_pr__cap_mim_m3_1 l=2 w=2
X8 VOUT+ cap_res_Y sky130_fd_pr__cap_mim_m3_1 l=2 w=2
X9 err_amp_mir err_amp_mir GNDA GNDA sky130_fd_pr__nfet_01v8 ad=0.1 pd=0.9 as=0.1 ps=0.9 w=0.5 l=0.15
X10 VDDA VDDA Vb2 VDDA sky130_fd_pr__pfet_01v8 ad=0.252 pd=2.06 as=0.126 ps=1.03 w=0.63 l=0.2
X11 VOUT+ cap_res_Y sky130_fd_pr__cap_mim_m3_1 l=2 w=2
X12 VOUT- cap_res_X sky130_fd_pr__cap_mim_m3_1 l=2 w=2
X13 VOUT- cap_res_X sky130_fd_pr__cap_mim_m3_1 l=2 w=2
X14 VOUT- cap_res_X sky130_fd_pr__cap_mim_m3_1 l=2 w=2
X15 VDDA Y V_CMFB_S4 GNDA sky130_fd_pr__nfet_01v8 ad=0.6 pd=3.4 as=0.6 ps=3.4 w=3 l=0.15
X16 VOUT- cap_res_X sky130_fd_pr__cap_mim_m3_1 l=2 w=2
X17 VD1 Vb1 Y GNDA sky130_fd_pr__nfet_01v8 ad=0.3 pd=1.9 as=0.3 ps=1.9 w=1.5 l=0.15
X18 VOUT- cap_res_X sky130_fd_pr__cap_mim_m3_1 l=2 w=2
X19 VOUT- cap_res_X sky130_fd_pr__cap_mim_m3_1 l=2 w=2
X20 VOUT+ cap_res_Y sky130_fd_pr__cap_mim_m3_1 l=2 w=2
X21 V_p VIN+ VD2 GNDA sky130_fd_pr__nfet_01v8 ad=0.3 pd=1.9 as=0.3 ps=1.9 w=1.5 l=0.15
X22 VOUT+ cap_res_Y sky130_fd_pr__cap_mim_m3_1 l=2 w=2
X23 VOUT+ cap_res_Y sky130_fd_pr__cap_mim_m3_1 l=2 w=2
X24 VDDA GNDA GNDA GNDA sky130_fd_pr__nfet_01v8 ad=0.6 pd=3.4 as=1.2 ps=6.8 w=3 l=0.15
X25 V_CMFB_S3 Y GNDA VDDA sky130_fd_pr__pfet_01v8 ad=0.4 pd=2.4 as=0.4 ps=2.4 w=2 l=0.15
X26 V_err_mir_p V_err_amp_ref V_err_gate VDDA sky130_fd_pr__pfet_01v8 ad=0.1 pd=0.9 as=0.1 ps=0.9 w=0.5 l=0.15
X27 VOUT+ cap_res_Y sky130_fd_pr__cap_mim_m3_1 l=2 w=2
X28 VOUT+ cap_res_Y sky130_fd_pr__cap_mim_m3_1 l=2 w=2
X29 V_p V_tail_gate GNDA GNDA sky130_fd_pr__nfet_01v8 ad=0.5 pd=2.9 as=0.5 ps=2.9 w=2.5 l=0.15
X30 VOUT+ VDDA VDDA VDDA sky130_fd_pr__pfet_01v8 ad=1.2 pd=6.4 as=2.4 ps=12.8 w=6 l=0.15
X31 V_CMFB_S1 X GNDA VDDA sky130_fd_pr__pfet_01v8 ad=0.4 pd=2.4 as=0.4 ps=2.4 w=2 l=0.15
X32 VOUT- cap_res_X sky130_fd_pr__cap_mim_m3_1 l=2 w=2
X33 VOUT+ cap_res_Y sky130_fd_pr__cap_mim_m3_1 l=2 w=2
X34 GNDA err_amp_mir err_amp_mir GNDA sky130_fd_pr__nfet_01v8 ad=0.1 pd=0.9 as=0.1 ps=0.9 w=0.5 l=0.15
X35 VOUT+ cap_res_Y sky130_fd_pr__cap_mim_m3_1 l=2 w=2
X36 VOUT+ cap_res_Y sky130_fd_pr__cap_mim_m3_1 l=2 w=2
X37 Vb3 Vb2 Vb2_Vb3 Vb2_Vb3 sky130_fd_pr__pfet_01v8 ad=0.12 pd=1 as=0.12 ps=1 w=0.6 l=0.2
X38 VOUT- cap_res_X sky130_fd_pr__cap_mim_m3_1 l=2 w=2
X39 V_err_mir_p V_err_gate VDDA VDDA sky130_fd_pr__pfet_01v8 ad=0.1 pd=0.9 as=0.1 ps=0.9 w=0.5 l=0.15
X40 VOUT+ cap_res_Y sky130_fd_pr__cap_mim_m3_1 l=2 w=2
X41 VOUT+ cap_res_Y sky130_fd_pr__cap_mim_m3_1 l=2 w=2
X42 VOUT+ cap_res_Y sky130_fd_pr__cap_mim_m3_1 l=2 w=2
X43 VOUT- cap_res_X sky130_fd_pr__cap_mim_m3_1 l=2 w=2
X44 GNDA GNDA V_tail_gate GNDA sky130_fd_pr__nfet_01v8 ad=0.6 pd=3.8 as=0.3 ps=1.9 w=1.5 l=0.15
X45 VD1 VIN- V_p GNDA sky130_fd_pr__nfet_01v8 ad=0.3 pd=1.9 as=0.3 ps=1.9 w=1.5 l=0.15
X46 Y VD4 VD4 VD4 sky130_fd_pr__pfet_01v8 ad=0.7 pd=3.9 as=1.4 ps=7.8 w=3.5 l=0.2
X47 VOUT+ cap_res_Y sky130_fd_pr__cap_mim_m3_1 l=2 w=2
X48 VOUT+ cap_res_Y sky130_fd_pr__cap_mim_m3_1 l=2 w=2
X49 VOUT+ cap_res_Y sky130_fd_pr__cap_mim_m3_1 l=2 w=2
X50 VOUT+ cap_res_Y sky130_fd_pr__cap_mim_m3_1 l=2 w=2
X51 cap_res_Y Y GNDA sky130_fd_pr__res_high_po_1p41 l=1.41
X52 VDDA Y VOUT+ VDDA sky130_fd_pr__pfet_01v8 ad=1.2 pd=6.4 as=1.2 ps=6.4 w=6 l=0.15
X53 GNDA GNDA V_p GNDA sky130_fd_pr__nfet_01v8 ad=1 pd=5.8 as=0.5 ps=2.9 w=2.5 l=0.15
X54 X Vb1 VD2 GNDA sky130_fd_pr__nfet_01v8 ad=0.3 pd=1.9 as=0.3 ps=1.9 w=1.5 l=0.15
X55 VOUT+ cap_res_Y sky130_fd_pr__cap_mim_m3_1 l=2 w=2
X56 VOUT- cap_res_X sky130_fd_pr__cap_mim_m3_1 l=2 w=2
X57 VOUT+ cap_res_Y sky130_fd_pr__cap_mim_m3_1 l=2 w=2
X58 GNDA GNDA GNDA GNDA sky130_fd_pr__nfet_01v8 ad=1 pd=5.8 as=47.6 ps=271.6 w=2.5 l=0.15
X59 VDDA X VOUT- VDDA sky130_fd_pr__pfet_01v8 ad=1.2 pd=6.4 as=1.2 ps=6.4 w=6 l=0.15
X60 VOUT+ cap_res_Y sky130_fd_pr__cap_mim_m3_1 l=2 w=2
X61 err_amp_out err_amp_mir GNDA GNDA sky130_fd_pr__nfet_01v8 ad=0.1 pd=0.9 as=0.1 ps=0.9 w=0.5 l=0.15
X62 VDDA Y V_CMFB_S4 GNDA sky130_fd_pr__nfet_01v8 ad=0.6 pd=3.4 as=0.6 ps=3.4 w=3 l=0.15
X63 VOUT+ cap_res_Y sky130_fd_pr__cap_mim_m3_1 l=2 w=2
X64 VOUT- cap_res_X sky130_fd_pr__cap_mim_m3_1 l=2 w=2
X65 VOUT- cap_res_X sky130_fd_pr__cap_mim_m3_1 l=2 w=2
X66 VOUT+ cap_res_Y sky130_fd_pr__cap_mim_m3_1 l=2 w=2
X67 GNDA GNDA VOUT- GNDA sky130_fd_pr__nfet_01v8 ad=2.8 pd=14.8 as=1.4 ps=7.4 w=7 l=0.6
X68 VDDA VDDA err_amp_out VDDA sky130_fd_pr__pfet_01v8 ad=0.2 pd=1.8 as=0.1 ps=0.9 w=0.5 l=0.15
X69 VOUT- cap_res_X sky130_fd_pr__cap_mim_m3_1 l=2 w=2
X70 VD4 Vb3 VDDA VDDA sky130_fd_pr__pfet_01v8 ad=0.7 pd=3.9 as=0.7 ps=3.9 w=3.5 l=0.2
X71 VD1 Vb1 Y GNDA sky130_fd_pr__nfet_01v8 ad=0.3 pd=1.9 as=0.3 ps=1.9 w=1.5 l=0.15
X72 VOUT+ cap_res_Y sky130_fd_pr__cap_mim_m3_1 l=2 w=2
X73 VOUT- cap_res_X sky130_fd_pr__cap_mim_m3_1 l=2 w=2
X74 VOUT- cap_res_X sky130_fd_pr__cap_mim_m3_1 l=2 w=2
X75 VOUT+ cap_res_Y sky130_fd_pr__cap_mim_m3_1 l=2 w=2
X76 V_CMFB_S3 Y GNDA VDDA sky130_fd_pr__pfet_01v8 ad=0.4 pd=2.4 as=0.4 ps=2.4 w=2 l=0.15
X77 VOUT- cap_res_X sky130_fd_pr__cap_mim_m3_1 l=2 w=2
X78 V_err_mir_p V_tot V_err_gate VDDA sky130_fd_pr__pfet_01v8 ad=0.1 pd=0.9 as=0.1 ps=0.9 w=0.5 l=0.15
X79 VDDA VDDA GNDA VDDA sky130_fd_pr__pfet_01v8 ad=0.8 pd=4.8 as=0.4 ps=2.4 w=2 l=0.15
X80 V_p V_tail_gate GNDA GNDA sky130_fd_pr__nfet_01v8 ad=0.5 pd=2.9 as=0.5 ps=2.9 w=2.5 l=0.15
X81 a_68350_4733# V_tot GNDA sky130_fd_pr__res_xhigh_po_0p35 l=1.725
X82 V_CMFB_S1 X GNDA VDDA sky130_fd_pr__pfet_01v8 ad=0.4 pd=2.4 as=0.4 ps=2.4 w=2 l=0.15
X83 GNDA err_amp_mir err_amp_out GNDA sky130_fd_pr__nfet_01v8 ad=0.1 pd=0.9 as=0.1 ps=0.9 w=0.5 l=0.15
X84 Vb2_Vb3 Vb3 VDDA VDDA sky130_fd_pr__pfet_01v8 ad=0.16 pd=1.2 as=0.16 ps=1.2 w=0.8 l=0.2
X85 V_CMFB_S2 X VDDA GNDA sky130_fd_pr__nfet_01v8 ad=0.6 pd=3.4 as=0.6 ps=3.4 w=3 l=0.15
X86 VDDA Vb3 VD3 VDDA sky130_fd_pr__pfet_01v8 ad=0.7 pd=3.9 as=0.7 ps=3.9 w=3.5 l=0.2
X87 GNDA GNDA VDDA GNDA sky130_fd_pr__nfet_01v8 ad=1.2 pd=6.8 as=0.6 ps=3.4 w=3 l=0.15
X88 V_err_mir_p V_err_gate VDDA VDDA sky130_fd_pr__pfet_01v8 ad=0.1 pd=0.9 as=0.1 ps=0.9 w=0.5 l=0.15
X89 V_err_mir_p V_err_gate VDDA VDDA sky130_fd_pr__pfet_01v8 ad=0.1 pd=0.9 as=0.1 ps=0.9 w=0.5 l=0.15
X90 VOUT+ cap_res_Y sky130_fd_pr__cap_mim_m3_1 l=2 w=2
X91 VOUT- cap_res_X sky130_fd_pr__cap_mim_m3_1 l=2 w=2
X92 VOUT+ cap_res_Y sky130_fd_pr__cap_mim_m3_1 l=2 w=2
X93 Vb2_Vb3 Vb2 Vb3 Vb2_Vb3 sky130_fd_pr__pfet_01v8 ad=0.12 pd=1 as=0.12 ps=1 w=0.6 l=0.2
X94 VOUT+ cap_res_Y sky130_fd_pr__cap_mim_m3_1 l=2 w=2
X95 VOUT- cap_res_X sky130_fd_pr__cap_mim_m3_1 l=2 w=2
X96 VOUT+ cap_res_Y sky130_fd_pr__cap_mim_m3_1 l=2 w=2
X97 V_p_mir VIN- V_tail_gate GNDA sky130_fd_pr__nfet_01v8 ad=0.3 pd=1.9 as=0.3 ps=1.9 w=1.5 l=0.15
X98 VD2 VIN+ V_p GNDA sky130_fd_pr__nfet_01v8 ad=0.3 pd=1.9 as=0.3 ps=1.9 w=1.5 l=0.15
X99 VOUT+ cap_res_Y sky130_fd_pr__cap_mim_m3_1 l=2 w=2
X100 VOUT+ V_b_2nd_stage GNDA GNDA sky130_fd_pr__nfet_01v8 ad=1.4 pd=7.4 as=1.4 ps=7.4 w=7 l=0.6
X101 VDDA Vb3 VD4 VDDA sky130_fd_pr__pfet_01v8 ad=0.7 pd=3.9 as=0.7 ps=3.9 w=3.5 l=0.2
X102 VDDA Y VOUT+ VDDA sky130_fd_pr__pfet_01v8 ad=1.2 pd=6.4 as=1.2 ps=6.4 w=6 l=0.15
X103 VDDA VDDA VOUT+ VDDA sky130_fd_pr__pfet_01v8 ad=2.4 pd=12.8 as=1.2 ps=6.4 w=6 l=0.15
X104 X Vb1 VD2 GNDA sky130_fd_pr__nfet_01v8 ad=0.3 pd=1.9 as=0.3 ps=1.9 w=1.5 l=0.15
X105 VDDA X VOUT- VDDA sky130_fd_pr__pfet_01v8 ad=1.2 pd=6.4 as=1.2 ps=6.4 w=6 l=0.15
X106 Vb2_Vb3 Vb2 Vb3 Vb2_Vb3 sky130_fd_pr__pfet_01v8 ad=0.12 pd=1 as=0.12 ps=1 w=0.6 l=0.2
X107 VOUT- cap_res_X sky130_fd_pr__cap_mim_m3_1 l=2 w=2
X108 Y Vb2 VD4 VD4 sky130_fd_pr__pfet_01v8 ad=0.7 pd=3.9 as=0.7 ps=3.9 w=3.5 l=0.2
X109 VOUT- cap_res_X sky130_fd_pr__cap_mim_m3_1 l=2 w=2
X110 VOUT- cap_res_X sky130_fd_pr__cap_mim_m3_1 l=2 w=2
X111 VOUT- cap_res_X sky130_fd_pr__cap_mim_m3_1 l=2 w=2
X112 VOUT+ cap_res_Y sky130_fd_pr__cap_mim_m3_1 l=2 w=2
X113 VDDA Y V_CMFB_S4 GNDA sky130_fd_pr__nfet_01v8 ad=0.6 pd=3.4 as=0.6 ps=3.4 w=3 l=0.15
X114 VOUT+ cap_res_Y sky130_fd_pr__cap_mim_m3_1 l=2 w=2
X115 VOUT- cap_res_X sky130_fd_pr__cap_mim_m3_1 l=2 w=2
X116 VOUT- GNDA GNDA GNDA sky130_fd_pr__nfet_01v8 ad=1.4 pd=7.4 as=2.8 ps=14.8 w=7 l=0.6
X117 VOUT- cap_res_X sky130_fd_pr__cap_mim_m3_1 l=2 w=2
X118 Vb2_Vb3 Vb3 VDDA VDDA sky130_fd_pr__pfet_01v8 ad=0.16 pd=1.2 as=0.16 ps=1.2 w=0.8 l=0.2
X119 VOUT- cap_res_X sky130_fd_pr__cap_mim_m3_1 l=2 w=2
X120 V_p V_tail_gate GNDA GNDA sky130_fd_pr__nfet_01v8 ad=0.5 pd=2.9 as=0.5 ps=2.9 w=2.5 l=0.15
X121 V_err_mir_p V_tot V_err_gate VDDA sky130_fd_pr__pfet_01v8 ad=0.1 pd=0.9 as=0.1 ps=0.9 w=0.5 l=0.15
X122 VD3 Vb2 X VD3 sky130_fd_pr__pfet_01v8 ad=0.7 pd=3.9 as=0.7 ps=3.9 w=3.5 l=0.2
X123 VOUT- cap_res_X sky130_fd_pr__cap_mim_m3_1 l=2 w=2
X124 Vb2_Vb3 Vb2_Vb3 Vb3 Vb2_Vb3 sky130_fd_pr__pfet_01v8 ad=0.24 pd=2 as=0.12 ps=1 w=0.6 l=0.2
X125 V_CMFB_S3 Y GNDA VDDA sky130_fd_pr__pfet_01v8 ad=0.4 pd=2.4 as=0.4 ps=2.4 w=2 l=0.15
X126 VOUT- cap_res_X sky130_fd_pr__cap_mim_m3_1 l=2 w=2
X127 VOUT- cap_res_X sky130_fd_pr__cap_mim_m3_1 l=2 w=2
X128 VOUT- cap_res_X sky130_fd_pr__cap_mim_m3_1 l=2 w=2
X129 V_CMFB_S2 X VDDA GNDA sky130_fd_pr__nfet_01v8 ad=0.6 pd=3.4 as=0.6 ps=3.4 w=3 l=0.15
X130 VOUT- cap_res_X sky130_fd_pr__cap_mim_m3_1 l=2 w=2
X131 VOUT+ cap_res_Y sky130_fd_pr__cap_mim_m3_1 l=2 w=2
X132 VOUT- V_b_2nd_stage GNDA GNDA sky130_fd_pr__nfet_01v8 ad=1.4 pd=7.4 as=1.4 ps=7.4 w=7 l=0.6
X133 VDDA Vb3 VD4 VDDA sky130_fd_pr__pfet_01v8 ad=0.7 pd=3.9 as=0.7 ps=3.9 w=3.5 l=0.2
X134 V_err_p V_err_gate VDDA VDDA sky130_fd_pr__pfet_01v8 ad=0.1 pd=0.9 as=0.1 ps=0.9 w=0.5 l=0.15
X135 VD3 VDDA VDDA VDDA sky130_fd_pr__pfet_01v8 ad=0.7 pd=3.9 as=1.4 ps=7.8 w=3.5 l=0.2
X136 VD4 Vb2 Y VD4 sky130_fd_pr__pfet_01v8 ad=0.7 pd=3.9 as=0.7 ps=3.9 w=3.5 l=0.2
X137 VD2 VIN+ V_p GNDA sky130_fd_pr__nfet_01v8 ad=0.3 pd=1.9 as=0.3 ps=1.9 w=1.5 l=0.15
X138 VD1 VIN- V_p GNDA sky130_fd_pr__nfet_01v8 ad=0.3 pd=1.9 as=0.3 ps=1.9 w=1.5 l=0.15
X139 VOUT- cap_res_X sky130_fd_pr__cap_mim_m3_1 l=2 w=2
X140 X Vb1 VD2 GNDA sky130_fd_pr__nfet_01v8 ad=0.3 pd=1.9 as=0.3 ps=1.9 w=1.5 l=0.15
X141 VOUT- V_b_2nd_stage GNDA GNDA sky130_fd_pr__nfet_01v8 ad=1.4 pd=7.4 as=1.4 ps=7.4 w=7 l=0.6
X142 VOUT- cap_res_X sky130_fd_pr__cap_mim_m3_1 l=2 w=2
X143 VDDA Y VOUT+ VDDA sky130_fd_pr__pfet_01v8 ad=1.2 pd=6.4 as=1.2 ps=6.4 w=6 l=0.15
X144 X Vb1 VD2 GNDA sky130_fd_pr__nfet_01v8 ad=0.3 pd=1.9 as=0.3 ps=1.9 w=1.5 l=0.15
X145 VOUT+ cap_res_Y sky130_fd_pr__cap_mim_m3_1 l=2 w=2
X146 VOUT+ cap_res_Y sky130_fd_pr__cap_mim_m3_1 l=2 w=2
X147 VOUT- cap_res_X sky130_fd_pr__cap_mim_m3_1 l=2 w=2
X148 VOUT+ cap_res_Y sky130_fd_pr__cap_mim_m3_1 l=2 w=2
X149 VOUT+ cap_res_Y sky130_fd_pr__cap_mim_m3_1 l=2 w=2
X150 VDDA Y V_CMFB_S4 GNDA sky130_fd_pr__nfet_01v8 ad=0.6 pd=3.4 as=0.6 ps=3.4 w=3 l=0.15
X151 VOUT- cap_res_X sky130_fd_pr__cap_mim_m3_1 l=2 w=2
X152 Vb3 Vb2_Vb3 Vb2_Vb3 Vb2_Vb3 sky130_fd_pr__pfet_01v8 ad=0.12 pd=1 as=0.24 ps=2 w=0.6 l=0.2
X153 VDDA Vb3 VD4 VDDA sky130_fd_pr__pfet_01v8 ad=0.7 pd=3.9 as=0.7 ps=3.9 w=3.5 l=0.2
X154 VDDA VDDA V_err_p VDDA sky130_fd_pr__pfet_01v8 ad=0.2 pd=1.8 as=0.1 ps=0.9 w=0.5 l=0.15
X155 V_err_p V_tot err_amp_mir VDDA sky130_fd_pr__pfet_01v8 ad=0.1 pd=0.9 as=0.1 ps=0.9 w=0.5 l=0.15
X156 VOUT+ cap_res_Y sky130_fd_pr__cap_mim_m3_1 l=2 w=2
X157 GNDA V_b_2nd_stage VOUT+ GNDA sky130_fd_pr__nfet_01v8 ad=1.4 pd=7.4 as=1.4 ps=7.4 w=7 l=0.6
X158 VOUT- cap_res_X sky130_fd_pr__cap_mim_m3_1 l=2 w=2
X159 VOUT- cap_res_X sky130_fd_pr__cap_mim_m3_1 l=2 w=2
X160 VOUT+ cap_res_Y sky130_fd_pr__cap_mim_m3_1 l=2 w=2
X161 VOUT- cap_res_X sky130_fd_pr__cap_mim_m3_1 l=2 w=2
X162 VOUT- cap_res_X sky130_fd_pr__cap_mim_m3_1 l=2 w=2
X163 VOUT- cap_res_X sky130_fd_pr__cap_mim_m3_1 l=2 w=2
X164 a_68230_4733# V_tot GNDA sky130_fd_pr__res_xhigh_po_0p35 l=1.725
X165 VOUT- cap_res_X sky130_fd_pr__cap_mim_m3_1 l=2 w=2
X166 VDDA Vb3 Vb2_Vb3 VDDA sky130_fd_pr__pfet_01v8 ad=0.16 pd=1.2 as=0.16 ps=1.2 w=0.8 l=0.2
X167 V_b_2nd_stage a_67950_1836# GNDA sky130_fd_pr__res_xhigh_po_0p35 l=2.63
X168 V_p_mir V_tail_gate GNDA GNDA sky130_fd_pr__nfet_01v8 ad=0.5 pd=2.9 as=0.5 ps=2.9 w=2.5 l=0.15
X169 VD3 Vb3 VDDA VDDA sky130_fd_pr__pfet_01v8 ad=0.7 pd=3.9 as=0.7 ps=3.9 w=3.5 l=0.2
X170 VOUT+ cap_res_Y sky130_fd_pr__cap_mim_m3_1 l=2 w=2
X171 VOUT- cap_res_X sky130_fd_pr__cap_mim_m3_1 l=2 w=2
X172 V_p V_tail_gate GNDA GNDA sky130_fd_pr__nfet_01v8 ad=0.5 pd=2.9 as=0.5 ps=2.9 w=2.5 l=0.15
X173 V_CMFB_S3 Y GNDA VDDA sky130_fd_pr__pfet_01v8 ad=0.4 pd=2.4 as=0.4 ps=2.4 w=2 l=0.15
X174 VOUT- cap_res_X sky130_fd_pr__cap_mim_m3_1 l=2 w=2
X175 VOUT- cap_res_X sky130_fd_pr__cap_mim_m3_1 l=2 w=2
X176 GNDA err_amp_mir err_amp_mir GNDA sky130_fd_pr__nfet_01v8 ad=0.1 pd=0.9 as=0.1 ps=0.9 w=0.5 l=0.15
X177 VD4 Vb2 Y VD4 sky130_fd_pr__pfet_01v8 ad=0.7 pd=3.9 as=0.7 ps=3.9 w=3.5 l=0.2
X178 GNDA GNDA err_amp_out GNDA sky130_fd_pr__nfet_01v8 ad=0.2 pd=1.8 as=0.1 ps=0.9 w=0.5 l=0.15
X179 X VD3 VD3 VD3 sky130_fd_pr__pfet_01v8 ad=0.7 pd=3.9 as=1.4 ps=7.8 w=3.5 l=0.2
X180 VOUT+ cap_res_Y sky130_fd_pr__cap_mim_m3_1 l=2 w=2
X181 GNDA V_b_2nd_stage VOUT+ GNDA sky130_fd_pr__nfet_01v8 ad=1.4 pd=7.4 as=1.4 ps=7.4 w=7 l=0.6
X182 V_CMFB_S2 X VDDA GNDA sky130_fd_pr__nfet_01v8 ad=0.6 pd=3.4 as=0.6 ps=3.4 w=3 l=0.15
X183 Y Vb1 VD1 GNDA sky130_fd_pr__nfet_01v8 ad=0.3 pd=1.9 as=0.3 ps=1.9 w=1.5 l=0.15
X184 Y GNDA GNDA GNDA sky130_fd_pr__nfet_01v8 ad=0.3 pd=1.9 as=0.6 ps=3.8 w=1.5 l=0.15
X185 V_err_mir_p V_err_gate VDDA VDDA sky130_fd_pr__pfet_01v8 ad=0.1 pd=0.9 as=0.1 ps=0.9 w=0.5 l=0.15
X186 Y Vb1 VD1 GNDA sky130_fd_pr__nfet_01v8 ad=0.3 pd=1.9 as=0.3 ps=1.9 w=1.5 l=0.15
X187 VOUT+ cap_res_Y sky130_fd_pr__cap_mim_m3_1 l=2 w=2
X188 VOUT- cap_res_X sky130_fd_pr__cap_mim_m3_1 l=2 w=2
X189 VOUT+ cap_res_Y sky130_fd_pr__cap_mim_m3_1 l=2 w=2
X190 VD1 VIN- V_p GNDA sky130_fd_pr__nfet_01v8 ad=0.3 pd=1.9 as=0.3 ps=1.9 w=1.5 l=0.15
X191 VD4 Vb3 VDDA VDDA sky130_fd_pr__pfet_01v8 ad=0.7 pd=3.9 as=0.7 ps=3.9 w=3.5 l=0.2
X192 VOUT- cap_res_X sky130_fd_pr__cap_mim_m3_1 l=2 w=2
X193 VOUT+ cap_res_Y sky130_fd_pr__cap_mim_m3_1 l=2 w=2
X194 VD1 VIN- V_p GNDA sky130_fd_pr__nfet_01v8 ad=0.3 pd=1.9 as=0.3 ps=1.9 w=1.5 l=0.15
X195 VD2 VIN+ V_p GNDA sky130_fd_pr__nfet_01v8 ad=0.3 pd=1.9 as=0.3 ps=1.9 w=1.5 l=0.15
X196 VOUT- cap_res_X sky130_fd_pr__cap_mim_m3_1 l=2 w=2
X197 VOUT+ cap_res_Y sky130_fd_pr__cap_mim_m3_1 l=2 w=2
X198 Vb3 Vb2 Vb2_Vb3 Vb2_Vb3 sky130_fd_pr__pfet_01v8 ad=0.12 pd=1 as=0.12 ps=1 w=0.6 l=0.2
X199 V_err_gate V_tot V_err_mir_p VDDA sky130_fd_pr__pfet_01v8 ad=0.1 pd=0.9 as=0.1 ps=0.9 w=0.5 l=0.15
X200 a_59060_4743# V_tot GNDA sky130_fd_pr__res_xhigh_po_0p35 l=1.775
X201 VOUT+ cap_res_Y sky130_fd_pr__cap_mim_m3_1 l=2 w=2
X202 VOUT- cap_res_X sky130_fd_pr__cap_mim_m3_1 l=2 w=2
X203 VD3 Vb3 VDDA VDDA sky130_fd_pr__pfet_01v8 ad=0.7 pd=3.9 as=0.7 ps=3.9 w=3.5 l=0.2
X204 X Vb1 VD2 GNDA sky130_fd_pr__nfet_01v8 ad=0.3 pd=1.9 as=0.3 ps=1.9 w=1.5 l=0.15
X205 GNDA X V_CMFB_S1 VDDA sky130_fd_pr__pfet_01v8 ad=0.4 pd=2.4 as=0.4 ps=2.4 w=2 l=0.15
X206 VOUT- cap_res_X sky130_fd_pr__cap_mim_m3_1 l=2 w=2
X207 VOUT+ cap_res_Y sky130_fd_pr__cap_mim_m3_1 l=2 w=2
X208 VOUT+ cap_res_Y sky130_fd_pr__cap_mim_m3_1 l=2 w=2
X209 VDDA Y VOUT+ VDDA sky130_fd_pr__pfet_01v8 ad=1.2 pd=6.4 as=1.2 ps=6.4 w=6 l=0.15
X210 VD4 Vb2 Y VD4 sky130_fd_pr__pfet_01v8 ad=0.7 pd=3.9 as=0.7 ps=3.9 w=3.5 l=0.2
X211 VDDA GNDA GNDA GNDA sky130_fd_pr__nfet_01v8 ad=0.6 pd=3.4 as=1.2 ps=6.8 w=3 l=0.15
X212 VDDA V_err_gate V_err_mir_p VDDA sky130_fd_pr__pfet_01v8 ad=0.1 pd=0.9 as=0.1 ps=0.9 w=0.5 l=0.15
X213 VOUT+ cap_res_Y sky130_fd_pr__cap_mim_m3_1 l=2 w=2
X214 VOUT- cap_res_X sky130_fd_pr__cap_mim_m3_1 l=2 w=2
X215 VOUT- cap_res_X sky130_fd_pr__cap_mim_m3_1 l=2 w=2
X216 VOUT- cap_res_X sky130_fd_pr__cap_mim_m3_1 l=2 w=2
X217 V_err_p V_err_amp_ref err_amp_out VDDA sky130_fd_pr__pfet_01v8 ad=0.1 pd=0.9 as=0.1 ps=0.9 w=0.5 l=0.15
X218 V_p VIN- VD1 GNDA sky130_fd_pr__nfet_01v8 ad=0.3 pd=1.9 as=0.3 ps=1.9 w=1.5 l=0.15
X219 VOUT- cap_res_X sky130_fd_pr__cap_mim_m3_1 l=2 w=2
X220 VDDA VDDA Vb2_Vb3 VDDA sky130_fd_pr__pfet_01v8 ad=0.32 pd=2.4 as=0.16 ps=1.2 w=0.8 l=0.2
X221 VOUT+ cap_res_Y sky130_fd_pr__cap_mim_m3_1 l=2 w=2
X222 VOUT+ cap_res_Y sky130_fd_pr__cap_mim_m3_1 l=2 w=2
X223 VOUT+ cap_res_Y sky130_fd_pr__cap_mim_m3_1 l=2 w=2
X224 X Vb2 VD3 VD3 sky130_fd_pr__pfet_01v8 ad=0.7 pd=3.9 as=0.7 ps=3.9 w=3.5 l=0.2
X225 VOUT- cap_res_X sky130_fd_pr__cap_mim_m3_1 l=2 w=2
X226 VOUT- X VDDA VDDA sky130_fd_pr__pfet_01v8 ad=1.2 pd=6.4 as=1.2 ps=6.4 w=6 l=0.15
X227 VOUT- cap_res_X sky130_fd_pr__cap_mim_m3_1 l=2 w=2
X228 VOUT- cap_res_X sky130_fd_pr__cap_mim_m3_1 l=2 w=2
X229 V_p V_tail_gate GNDA GNDA sky130_fd_pr__nfet_01v8 ad=0.5 pd=2.9 as=0.5 ps=2.9 w=2.5 l=0.15
X230 VD4 Vb3 VDDA VDDA sky130_fd_pr__pfet_01v8 ad=0.7 pd=3.9 as=0.7 ps=3.9 w=3.5 l=0.2
X231 V_CMFB_S4 Y VDDA GNDA sky130_fd_pr__nfet_01v8 ad=0.6 pd=3.4 as=0.6 ps=3.4 w=3 l=0.15
X232 V_CMFB_S2 X VDDA GNDA sky130_fd_pr__nfet_01v8 ad=0.6 pd=3.4 as=0.6 ps=3.4 w=3 l=0.15
X233 VOUT- cap_res_X sky130_fd_pr__cap_mim_m3_1 l=2 w=2
X234 VOUT- cap_res_X sky130_fd_pr__cap_mim_m3_1 l=2 w=2
X235 Y Vb2 VD4 VD4 sky130_fd_pr__pfet_01v8 ad=0.7 pd=3.9 as=0.7 ps=3.9 w=3.5 l=0.2
X236 err_amp_mir V_tot V_err_p VDDA sky130_fd_pr__pfet_01v8 ad=0.1 pd=0.9 as=0.1 ps=0.9 w=0.5 l=0.15
X237 VOUT+ cap_res_Y sky130_fd_pr__cap_mim_m3_1 l=2 w=2
X238 VOUT- cap_res_X sky130_fd_pr__cap_mim_m3_1 l=2 w=2
X239 VOUT+ cap_res_Y sky130_fd_pr__cap_mim_m3_1 l=2 w=2
X240 VOUT+ cap_res_Y sky130_fd_pr__cap_mim_m3_1 l=2 w=2
X241 V_err_p V_err_gate VDDA VDDA sky130_fd_pr__pfet_01v8 ad=0.1 pd=0.9 as=0.1 ps=0.9 w=0.5 l=0.15
X242 VOUT- cap_res_X sky130_fd_pr__cap_mim_m3_1 l=2 w=2
X243 Y Vb1 VD1 GNDA sky130_fd_pr__nfet_01v8 ad=0.3 pd=1.9 as=0.3 ps=1.9 w=1.5 l=0.15
X244 a_58940_4743# V_CMFB_S1 GNDA sky130_fd_pr__res_xhigh_po_0p35 l=1.775
X245 VOUT+ cap_res_Y sky130_fd_pr__cap_mim_m3_1 l=2 w=2
X246 VD2 GNDA GNDA GNDA sky130_fd_pr__nfet_01v8 ad=0.3 pd=1.9 as=0.6 ps=3.8 w=1.5 l=0.15
X247 VOUT- cap_res_X sky130_fd_pr__cap_mim_m3_1 l=2 w=2
X248 VD2 VIN+ V_p GNDA sky130_fd_pr__nfet_01v8 ad=0.3 pd=1.9 as=0.3 ps=1.9 w=1.5 l=0.15
X249 X Vb2 VD3 VD3 sky130_fd_pr__pfet_01v8 ad=0.7 pd=3.9 as=0.7 ps=3.9 w=3.5 l=0.2
X250 VOUT- cap_res_X sky130_fd_pr__cap_mim_m3_1 l=2 w=2
X251 V_err_gate V_err_amp_ref V_err_mir_p VDDA sky130_fd_pr__pfet_01v8 ad=0.1 pd=0.9 as=0.1 ps=0.9 w=0.5 l=0.15
X252 VOUT+ cap_res_Y sky130_fd_pr__cap_mim_m3_1 l=2 w=2
X253 GNDA V_tail_gate V_p GNDA sky130_fd_pr__nfet_01v8 ad=0.5 pd=2.9 as=0.5 ps=2.9 w=2.5 l=0.15
X254 V_err_gate V_err_amp_ref V_err_mir_p VDDA sky130_fd_pr__pfet_01v8 ad=0.1 pd=0.9 as=0.1 ps=0.9 w=0.5 l=0.15
X255 GNDA V_tail_gate V_p GNDA sky130_fd_pr__nfet_01v8 ad=0.5 pd=2.9 as=0.5 ps=2.9 w=2.5 l=0.15
X256 GNDA X V_CMFB_S1 VDDA sky130_fd_pr__pfet_01v8 ad=0.4 pd=2.4 as=0.4 ps=2.4 w=2 l=0.15
X257 X GNDA GNDA GNDA sky130_fd_pr__nfet_01v8 ad=0.3 pd=1.9 as=0.6 ps=3.8 w=1.5 l=0.15
X258 VOUT- cap_res_X sky130_fd_pr__cap_mim_m3_1 l=2 w=2
X259 VD4 Vb3 VDDA VDDA sky130_fd_pr__pfet_01v8 ad=0.7 pd=3.9 as=0.7 ps=3.9 w=3.5 l=0.2
X260 VOUT- cap_res_X sky130_fd_pr__cap_mim_m3_1 l=2 w=2
X261 VOUT+ cap_res_Y sky130_fd_pr__cap_mim_m3_1 l=2 w=2
X262 VOUT+ cap_res_Y sky130_fd_pr__cap_mim_m3_1 l=2 w=2
X263 VOUT+ cap_res_Y sky130_fd_pr__cap_mim_m3_1 l=2 w=2
X264 VOUT+ cap_res_Y sky130_fd_pr__cap_mim_m3_1 l=2 w=2
X265 VOUT- cap_res_X sky130_fd_pr__cap_mim_m3_1 l=2 w=2
X266 VOUT+ cap_res_Y sky130_fd_pr__cap_mim_m3_1 l=2 w=2
X267 VDDA V_err_gate V_err_p VDDA sky130_fd_pr__pfet_01v8 ad=0.1 pd=0.9 as=0.1 ps=0.9 w=0.5 l=0.15
X268 VOUT+ cap_res_Y sky130_fd_pr__cap_mim_m3_1 l=2 w=2
X269 V_err_p V_tot err_amp_mir VDDA sky130_fd_pr__pfet_01v8 ad=0.1 pd=0.9 as=0.1 ps=0.9 w=0.5 l=0.15
X270 VDDA Vb3 VD3 VDDA sky130_fd_pr__pfet_01v8 ad=0.7 pd=3.9 as=0.7 ps=3.9 w=3.5 l=0.2
X271 VOUT- cap_res_X sky130_fd_pr__cap_mim_m3_1 l=2 w=2
X272 VOUT+ cap_res_Y sky130_fd_pr__cap_mim_m3_1 l=2 w=2
X273 Y Vb2 VD4 VD4 sky130_fd_pr__pfet_01v8 ad=0.7 pd=3.9 as=0.7 ps=3.9 w=3.5 l=0.2
X274 VOUT- X VDDA VDDA sky130_fd_pr__pfet_01v8 ad=1.2 pd=6.4 as=1.2 ps=6.4 w=6 l=0.15
X275 V_CMFB_S3 Y GNDA VDDA sky130_fd_pr__pfet_01v8 ad=0.4 pd=2.4 as=0.4 ps=2.4 w=2 l=0.15
X276 V_p V_tail_gate GNDA GNDA sky130_fd_pr__nfet_01v8 ad=0.5 pd=2.9 as=0.5 ps=2.9 w=2.5 l=0.15
X277 VOUT- cap_res_X sky130_fd_pr__cap_mim_m3_1 l=2 w=2
X278 VOUT+ cap_res_Y sky130_fd_pr__cap_mim_m3_1 l=2 w=2
X279 VOUT- cap_res_X sky130_fd_pr__cap_mim_m3_1 l=2 w=2
X280 VOUT+ cap_res_Y sky130_fd_pr__cap_mim_m3_1 l=2 w=2
X281 VOUT+ cap_res_Y sky130_fd_pr__cap_mim_m3_1 l=2 w=2
X282 VOUT- cap_res_X sky130_fd_pr__cap_mim_m3_1 l=2 w=2
X283 GNDA err_amp_mir err_amp_mir GNDA sky130_fd_pr__nfet_01v8 ad=0.1 pd=0.9 as=0.1 ps=0.9 w=0.5 l=0.15
X284 V_CMFB_S4 Y VDDA GNDA sky130_fd_pr__nfet_01v8 ad=0.6 pd=3.4 as=0.6 ps=3.4 w=3 l=0.15
X285 VOUT- cap_res_X sky130_fd_pr__cap_mim_m3_1 l=2 w=2
X286 GNDA GNDA VDDA GNDA sky130_fd_pr__nfet_01v8 ad=1.2 pd=6.8 as=0.6 ps=3.4 w=3 l=0.15
X287 V_CMFB_S2 X VDDA GNDA sky130_fd_pr__nfet_01v8 ad=0.6 pd=3.4 as=0.6 ps=3.4 w=3 l=0.15
X288 VOUT+ cap_res_Y sky130_fd_pr__cap_mim_m3_1 l=2 w=2
X289 V_err_p VDDA VDDA VDDA sky130_fd_pr__pfet_01v8 ad=0.1 pd=0.9 as=0.2 ps=1.8 w=0.5 l=0.15
X290 err_amp_out V_err_amp_ref V_err_p VDDA sky130_fd_pr__pfet_01v8 ad=0.1 pd=0.9 as=0.1 ps=0.9 w=0.5 l=0.15
X291 Y Vb1 VD1 GNDA sky130_fd_pr__nfet_01v8 ad=0.3 pd=1.9 as=0.3 ps=1.9 w=1.5 l=0.15
X292 Vb2_Vb3 Vb2 Vb3 Vb2_Vb3 sky130_fd_pr__pfet_01v8 ad=0.12 pd=1 as=0.12 ps=1 w=0.6 l=0.2
X293 a_59060_4743# V_CMFB_S2 GNDA sky130_fd_pr__res_xhigh_po_0p35 l=1.775
X294 VOUT+ cap_res_Y sky130_fd_pr__cap_mim_m3_1 l=2 w=2
X295 VOUT+ cap_res_Y sky130_fd_pr__cap_mim_m3_1 l=2 w=2
X296 VD1 VIN- V_p GNDA sky130_fd_pr__nfet_01v8 ad=0.3 pd=1.9 as=0.3 ps=1.9 w=1.5 l=0.15
X297 VDDA Vb3 VD3 VDDA sky130_fd_pr__pfet_01v8 ad=0.7 pd=3.9 as=0.7 ps=3.9 w=3.5 l=0.2
X298 VOUT- cap_res_X sky130_fd_pr__cap_mim_m3_1 l=2 w=2
X299 Y Vb2 VD4 VD4 sky130_fd_pr__pfet_01v8 ad=0.7 pd=3.9 as=0.7 ps=3.9 w=3.5 l=0.2
X300 V_err_gate V_tot V_err_mir_p VDDA sky130_fd_pr__pfet_01v8 ad=0.1 pd=0.9 as=0.1 ps=0.9 w=0.5 l=0.15
X301 GNDA V_tail_gate V_p GNDA sky130_fd_pr__nfet_01v8 ad=0.5 pd=2.9 as=0.5 ps=2.9 w=2.5 l=0.15
X302 VDDA Y VOUT+ VDDA sky130_fd_pr__pfet_01v8 ad=1.2 pd=6.4 as=1.2 ps=6.4 w=6 l=0.15
X303 GNDA X V_CMFB_S1 VDDA sky130_fd_pr__pfet_01v8 ad=0.4 pd=2.4 as=0.4 ps=2.4 w=2 l=0.15
X304 VOUT- cap_res_X sky130_fd_pr__cap_mim_m3_1 l=2 w=2
X305 err_amp_out err_amp_mir GNDA GNDA sky130_fd_pr__nfet_01v8 ad=0.1 pd=0.9 as=0.1 ps=0.9 w=0.5 l=0.15
X306 VOUT+ cap_res_Y sky130_fd_pr__cap_mim_m3_1 l=2 w=2
X307 cap_res_X X GNDA sky130_fd_pr__res_high_po_1p41 l=1.41
X308 VOUT+ cap_res_Y sky130_fd_pr__cap_mim_m3_1 l=2 w=2
X309 VOUT+ cap_res_Y sky130_fd_pr__cap_mim_m3_1 l=2 w=2
X310 VD1 Vb1 Y GNDA sky130_fd_pr__nfet_01v8 ad=0.3 pd=1.9 as=0.3 ps=1.9 w=1.5 l=0.15
X311 VDDA V_err_gate V_err_mir_p VDDA sky130_fd_pr__pfet_01v8 ad=0.1 pd=0.9 as=0.1 ps=0.9 w=0.5 l=0.15
X312 GNDA GNDA VD1 GNDA sky130_fd_pr__nfet_01v8 ad=0.6 pd=3.8 as=0.3 ps=1.9 w=1.5 l=0.15
X313 VD3 Vb2 X VD3 sky130_fd_pr__pfet_01v8 ad=0.7 pd=3.9 as=0.7 ps=3.9 w=3.5 l=0.2
X314 VOUT- cap_res_X sky130_fd_pr__cap_mim_m3_1 l=2 w=2
X315 VOUT+ cap_res_Y sky130_fd_pr__cap_mim_m3_1 l=2 w=2
X316 VOUT- cap_res_X sky130_fd_pr__cap_mim_m3_1 l=2 w=2
X317 VOUT+ cap_res_Y sky130_fd_pr__cap_mim_m3_1 l=2 w=2
X318 VOUT- cap_res_X sky130_fd_pr__cap_mim_m3_1 l=2 w=2
X319 VOUT- cap_res_X sky130_fd_pr__cap_mim_m3_1 l=2 w=2
X320 VDDA Vb3 VD4 VDDA sky130_fd_pr__pfet_01v8 ad=0.7 pd=3.9 as=0.7 ps=3.9 w=3.5 l=0.2
X321 GNDA GNDA X GNDA sky130_fd_pr__nfet_01v8 ad=0.6 pd=3.8 as=0.3 ps=1.9 w=1.5 l=0.15
X322 VOUT- cap_res_X sky130_fd_pr__cap_mim_m3_1 l=2 w=2
X323 VOUT- X VDDA VDDA sky130_fd_pr__pfet_01v8 ad=1.2 pd=6.4 as=1.2 ps=6.4 w=6 l=0.15
X324 VOUT- cap_res_X sky130_fd_pr__cap_mim_m3_1 l=2 w=2
X325 GNDA err_amp_mir err_amp_out GNDA sky130_fd_pr__nfet_01v8 ad=0.1 pd=0.9 as=0.1 ps=0.9 w=0.5 l=0.15
X326 V_b_2nd_stage a_59460_1836# GNDA sky130_fd_pr__res_xhigh_po_0p35 l=2.63
X327 V_CMFB_S4 Y VDDA GNDA sky130_fd_pr__nfet_01v8 ad=0.6 pd=3.4 as=0.6 ps=3.4 w=3 l=0.15
X328 VDDA VDDA VD3 VDDA sky130_fd_pr__pfet_01v8 ad=1.4 pd=7.8 as=0.7 ps=3.9 w=3.5 l=0.2
X329 Y Vb1 VD1 GNDA sky130_fd_pr__nfet_01v8 ad=0.3 pd=1.9 as=0.3 ps=1.9 w=1.5 l=0.15
X330 VD3 Vb2 X VD3 sky130_fd_pr__pfet_01v8 ad=0.7 pd=3.9 as=0.7 ps=3.9 w=3.5 l=0.2
X331 VOUT+ cap_res_Y sky130_fd_pr__cap_mim_m3_1 l=2 w=2
X332 VOUT+ cap_res_Y sky130_fd_pr__cap_mim_m3_1 l=2 w=2
X333 VOUT- cap_res_X sky130_fd_pr__cap_mim_m3_1 l=2 w=2
X334 VOUT- cap_res_X sky130_fd_pr__cap_mim_m3_1 l=2 w=2
X335 VOUT- cap_res_X sky130_fd_pr__cap_mim_m3_1 l=2 w=2
X336 VOUT- cap_res_X sky130_fd_pr__cap_mim_m3_1 l=2 w=2
X337 VD2 GNDA GNDA GNDA sky130_fd_pr__nfet_01v8 ad=0.3 pd=1.9 as=0.6 ps=3.8 w=1.5 l=0.15
X338 VOUT+ cap_res_Y sky130_fd_pr__cap_mim_m3_1 l=2 w=2
X339 VOUT- cap_res_X sky130_fd_pr__cap_mim_m3_1 l=2 w=2
X340 VDDA VDDA VD4 VDDA sky130_fd_pr__pfet_01v8 ad=1.4 pd=7.8 as=0.7 ps=3.9 w=3.5 l=0.2
X341 GNDA Y V_CMFB_S3 VDDA sky130_fd_pr__pfet_01v8 ad=0.4 pd=2.4 as=0.4 ps=2.4 w=2 l=0.15
X342 V_err_gate V_err_amp_ref V_err_mir_p VDDA sky130_fd_pr__pfet_01v8 ad=0.1 pd=0.9 as=0.1 ps=0.9 w=0.5 l=0.15
X343 GNDA X V_CMFB_S1 VDDA sky130_fd_pr__pfet_01v8 ad=0.4 pd=2.4 as=0.4 ps=2.4 w=2 l=0.15
X344 VOUT- cap_res_X sky130_fd_pr__cap_mim_m3_1 l=2 w=2
X345 VOUT+ cap_res_Y sky130_fd_pr__cap_mim_m3_1 l=2 w=2
X346 VOUT+ cap_res_Y sky130_fd_pr__cap_mim_m3_1 l=2 w=2
X347 err_amp_mir err_amp_mir GNDA GNDA sky130_fd_pr__nfet_01v8 ad=0.1 pd=0.9 as=0.1 ps=0.9 w=0.5 l=0.15
X348 GNDA V_tail_gate V_p GNDA sky130_fd_pr__nfet_01v8 ad=0.5 pd=2.9 as=0.5 ps=2.9 w=2.5 l=0.15
X349 GNDA X V_CMFB_S1 VDDA sky130_fd_pr__pfet_01v8 ad=0.4 pd=2.4 as=0.4 ps=2.4 w=2 l=0.15
X350 VOUT- cap_res_X sky130_fd_pr__cap_mim_m3_1 l=2 w=2
X351 VDDA V_err_gate V_err_mir_p VDDA sky130_fd_pr__pfet_01v8 ad=0.1 pd=0.9 as=0.1 ps=0.9 w=0.5 l=0.15
X352 VDDA V_err_gate V_err_mir_p VDDA sky130_fd_pr__pfet_01v8 ad=0.1 pd=0.9 as=0.1 ps=0.9 w=0.5 l=0.15
X353 VOUT- cap_res_X sky130_fd_pr__cap_mim_m3_1 l=2 w=2
X354 VOUT+ cap_res_Y sky130_fd_pr__cap_mim_m3_1 l=2 w=2
X355 VOUT- cap_res_X sky130_fd_pr__cap_mim_m3_1 l=2 w=2
X356 VOUT- cap_res_X sky130_fd_pr__cap_mim_m3_1 l=2 w=2
X357 VOUT+ cap_res_Y sky130_fd_pr__cap_mim_m3_1 l=2 w=2
X358 VOUT- cap_res_X sky130_fd_pr__cap_mim_m3_1 l=2 w=2
X359 VDDA V_err_gate V_err_p VDDA sky130_fd_pr__pfet_01v8 ad=0.1 pd=0.9 as=0.1 ps=0.9 w=0.5 l=0.15
X360 V_tail_gate VIN+ V_p_mir GNDA sky130_fd_pr__nfet_01v8 ad=0.3 pd=1.9 as=0.3 ps=1.9 w=1.5 l=0.15
X361 V_p VIN+ VD2 GNDA sky130_fd_pr__nfet_01v8 ad=0.3 pd=1.9 as=0.3 ps=1.9 w=1.5 l=0.15
X362 VD3 Vb3 VDDA VDDA sky130_fd_pr__pfet_01v8 ad=0.7 pd=3.9 as=0.7 ps=3.9 w=3.5 l=0.2
X363 V_p Vb1 Vb1 GNDA sky130_fd_pr__nfet_01v8 ad=0.4 pd=2.8 as=0.4 ps=2.8 w=1 l=1.9
X364 VD4 Vb2 Y VD4 sky130_fd_pr__pfet_01v8 ad=0.7 pd=3.9 as=0.7 ps=3.9 w=3.5 l=0.2
X365 VOUT+ cap_res_Y sky130_fd_pr__cap_mim_m3_1 l=2 w=2
X366 VOUT+ cap_res_Y sky130_fd_pr__cap_mim_m3_1 l=2 w=2
X367 V_p err_amp_out GNDA GNDA sky130_fd_pr__nfet_01v8 ad=0.5 pd=2.9 as=0.5 ps=2.9 w=2.5 l=0.15
X368 VOUT+ Y VDDA VDDA sky130_fd_pr__pfet_01v8 ad=1.2 pd=6.4 as=1.2 ps=6.4 w=6 l=0.15
X369 VD2 Vb1 X GNDA sky130_fd_pr__nfet_01v8 ad=0.3 pd=1.9 as=0.3 ps=1.9 w=1.5 l=0.15
X370 VOUT- cap_res_X sky130_fd_pr__cap_mim_m3_1 l=2 w=2
X371 VOUT- X VDDA VDDA sky130_fd_pr__pfet_01v8 ad=1.2 pd=6.4 as=1.2 ps=6.4 w=6 l=0.15
X372 VOUT+ cap_res_Y sky130_fd_pr__cap_mim_m3_1 l=2 w=2
X373 VOUT- X VDDA VDDA sky130_fd_pr__pfet_01v8 ad=1.2 pd=6.4 as=1.2 ps=6.4 w=6 l=0.15
X374 VD3 VD3 X VD3 sky130_fd_pr__pfet_01v8 ad=1.4 pd=7.8 as=0.7 ps=3.9 w=3.5 l=0.2
X375 VOUT- cap_res_X sky130_fd_pr__cap_mim_m3_1 l=2 w=2
X376 VOUT- cap_res_X sky130_fd_pr__cap_mim_m3_1 l=2 w=2
X377 V_CMFB_S4 Y VDDA GNDA sky130_fd_pr__nfet_01v8 ad=0.6 pd=3.4 as=0.6 ps=3.4 w=3 l=0.15
X378 err_amp_mir VDDA VDDA VDDA sky130_fd_pr__pfet_01v8 ad=0.1 pd=0.9 as=0.2 ps=1.8 w=0.5 l=0.15
X379 VOUT- cap_res_X sky130_fd_pr__cap_mim_m3_1 l=2 w=2
X380 VOUT+ cap_res_Y sky130_fd_pr__cap_mim_m3_1 l=2 w=2
X381 VOUT+ cap_res_Y sky130_fd_pr__cap_mim_m3_1 l=2 w=2
X382 VOUT- cap_res_X sky130_fd_pr__cap_mim_m3_1 l=2 w=2
X383 Vb3 Vb2 Vb2_Vb3 Vb2_Vb3 sky130_fd_pr__pfet_01v8 ad=0.12 pd=1 as=0.12 ps=1 w=0.6 l=0.2
X384 err_amp_out V_err_amp_ref V_err_p VDDA sky130_fd_pr__pfet_01v8 ad=0.1 pd=0.9 as=0.1 ps=0.9 w=0.5 l=0.15
X385 VOUT- cap_res_X sky130_fd_pr__cap_mim_m3_1 l=2 w=2
X386 VOUT+ cap_res_Y sky130_fd_pr__cap_mim_m3_1 l=2 w=2
X387 VD3 Vb3 VDDA VDDA sky130_fd_pr__pfet_01v8 ad=0.7 pd=3.9 as=0.7 ps=3.9 w=3.5 l=0.2
X388 VOUT- cap_res_X sky130_fd_pr__cap_mim_m3_1 l=2 w=2
X389 VD4 VD4 Y VD4 sky130_fd_pr__pfet_01v8 ad=1.4 pd=7.8 as=0.7 ps=3.9 w=3.5 l=0.2
X390 VOUT- cap_res_X sky130_fd_pr__cap_mim_m3_1 l=2 w=2
X391 VOUT- cap_res_X sky130_fd_pr__cap_mim_m3_1 l=2 w=2
X392 GNDA V_tail_gate V_p GNDA sky130_fd_pr__nfet_01v8 ad=0.5 pd=2.9 as=0.5 ps=2.9 w=2.5 l=0.15
X393 VOUT+ cap_res_Y sky130_fd_pr__cap_mim_m3_1 l=2 w=2
X394 GNDA Y V_CMFB_S3 VDDA sky130_fd_pr__pfet_01v8 ad=0.4 pd=2.4 as=0.4 ps=2.4 w=2 l=0.15
X395 GNDA GNDA VOUT+ GNDA sky130_fd_pr__nfet_01v8 ad=2.8 pd=14.8 as=1.4 ps=7.4 w=7 l=0.6
X396 GNDA V_tail_gate V_p GNDA sky130_fd_pr__nfet_01v8 ad=0.5 pd=2.9 as=0.5 ps=2.9 w=2.5 l=0.15
X397 VOUT- cap_res_X sky130_fd_pr__cap_mim_m3_1 l=2 w=2
X398 err_amp_out err_amp_mir GNDA GNDA sky130_fd_pr__nfet_01v8 ad=0.1 pd=0.9 as=0.1 ps=0.9 w=0.5 l=0.15
X399 VOUT- cap_res_X sky130_fd_pr__cap_mim_m3_1 l=2 w=2
X400 VDDA X V_CMFB_S2 GNDA sky130_fd_pr__nfet_01v8 ad=0.6 pd=3.4 as=0.6 ps=3.4 w=3 l=0.15
X401 VD3 Vb3 VDDA VDDA sky130_fd_pr__pfet_01v8 ad=0.7 pd=3.9 as=0.7 ps=3.9 w=3.5 l=0.2